Title Card Required
 OpenBabel03192317543D

 90 97  0  0  0  0  0  0  0  0999 V2000
    0.2738   -1.5103   -0.8380 C   0  0  0  0  0  0  0  0  0  0  0  0
    1.3683   -0.6748   -0.9778 C   0  0  0  0  0  0  0  0  0  0  0  0
    2.0257   -0.5783   -2.2390 C   0  0  0  0  0  0  0  0  0  0  0  0
    1.5928   -1.2958   -3.3198 C   0  0  0  0  0  0  0  0  0  0  0  0
    0.4759   -2.1706   -3.2077 C   0  0  0  0  0  0  0  0  0  0  0  0
    0.0121   -2.9298   -4.3141 C   0  0  0  0  0  0  0  0  0  0  0  0
   -1.0648   -3.7735   -4.1867 C   0  0  0  0  0  0  0  0  0  0  0  0
   -1.7242   -3.8963   -2.9407 C   0  0  0  0  0  0  0  0  0  0  0  0
   -1.2970   -3.1728   -1.8517 C   0  0  0  0  0  0  0  0  0  0  0  0
   -0.1886   -2.2875   -1.9548 C   0  0  0  0  0  0  0  0  0  0  0  0
   -0.4264   -1.6716    0.4768 C   0  0  0  0  0  0  0  0  0  0  0  0
   -1.5833   -0.9697    0.7716 C   0  0  0  0  0  0  0  0  0  0  0  0
   -2.2247   -1.1650    2.0291 C   0  0  0  0  0  0  0  0  0  0  0  0
   -1.7159   -2.0371    2.9543 C   0  0  0  0  0  0  0  0  0  0  0  0
   -0.5387   -2.7850    2.6759 C   0  0  0  0  0  0  0  0  0  0  0  0
   -0.0006   -3.7060    3.6140 C   0  0  0  0  0  0  0  0  0  0  0  0
    1.1326   -4.4263    3.3227 C   0  0  0  0  0  0  0  0  0  0  0  0
    1.7765   -4.2584    2.0735 C   0  0  0  0  0  0  0  0  0  0  0  0
    1.2799   -3.3726    1.1460 C   0  0  0  0  0  0  0  0  0  0  0  0
    0.1120   -2.6077    1.4222 C   0  0  0  0  0  0  0  0  0  0  0  0
   -2.2656    0.2017   -0.4945 P   0  0  0  0  0  0  0  0  0  0  0  0
   -4.0699    0.0649   -0.1299 C   0  0  0  0  0  0  0  0  0  0  0  0
   -4.7911    0.9367    0.6909 C   0  0  0  0  0  0  0  0  0  0  0  0
   -6.8437   -0.3097    0.2917 C   0  0  0  0  0  0  0  0  0  0  0  0
   -4.7564   -0.9912   -0.7478 C   0  0  0  0  0  0  0  0  0  0  0  0
   -6.1595    0.7493    0.8936 C   0  0  0  0  0  0  0  0  0  0  0  0
   -6.1167   -1.1802   -0.5315 C   0  0  0  0  0  0  0  0  0  0  0  0
   -8.3208   -0.5141    0.5037 C   0  0  0  0  0  0  0  0  0  0  0  0
   -1.8475    1.8349    0.2456 C   0  0  0  0  0  0  0  0  0  0  0  0
   -1.0163    2.0018    1.3584 C   0  0  0  0  0  0  0  0  0  0  0  0
   -1.0577    4.4210    1.0861 C   0  0  0  0  0  0  0  0  0  0  0  0
   -2.2920    2.9798   -0.4313 C   0  0  0  0  0  0  0  0  0  0  0  0
   -0.6194    3.2769    1.7592 C   0  0  0  0  0  0  0  0  0  0  0  0
   -1.9177    4.2507   -0.0060 C   0  0  0  0  0  0  0  0  0  0  0  0
   -0.5930    5.7861    1.5181 C   0  0  0  0  0  0  0  0  0  0  0  0
    1.9745    0.2984    0.4839 P   0  0  0  0  0  0  0  0  0  0  0  0
    3.7720   -0.1355    0.4405 C   0  0  0  0  0  0  0  0  0  0  0  0
    4.7351    0.4979   -0.3526 C   0  0  0  0  0  0  0  0  0  0  0  0
    6.4721   -0.9886    0.4807 C   0  0  0  0  0  0  0  0  0  0  0  0
    4.1830   -1.1881    1.2708 C   0  0  0  0  0  0  0  0  0  0  0  0
    6.0637    0.0748   -0.3299 C   0  0  0  0  0  0  0  0  0  0  0  0
    5.5081   -1.6130    1.2814 C   0  0  0  0  0  0  0  0  0  0  0  0
    7.9064   -1.4470    0.5127 C   0  0  0  0  0  0  0  0  0  0  0  0
    1.9741    2.0047   -0.2055 C   0  0  0  0  0  0  0  0  0  0  0  0
    2.7197    2.9930    0.4504 C   0  0  0  0  0  0  0  0  0  0  0  0
    1.7637    4.7275   -0.9577 C   0  0  0  0  0  0  0  0  0  0  0  0
    1.1181    2.3984   -1.2419 C   0  0  0  0  0  0  0  0  0  0  0  0
    2.6217    4.3308    0.0730 C   0  0  0  0  0  0  0  0  0  0  0  0
    1.0167    3.7384   -1.6051 C   0  0  0  0  0  0  0  0  0  0  0  0
    1.6195    6.1722   -1.3569 C   0  0  0  0  0  0  0  0  0  0  0  0
    2.8852    0.0881   -2.3359 H   0  0  0  0  0  0  0  0  0  0  0  0
    2.1011   -1.2103   -4.2826 H   0  0  0  0  0  0  0  0  0  0  0  0
    0.5294   -2.8291   -5.2705 H   0  0  0  0  0  0  0  0  0  0  0  0
   -1.4119   -4.3527   -5.0438 H   0  0  0  0  0  0  0  0  0  0  0  0
   -2.5741   -4.5736   -2.8437 H   0  0  0  0  0  0  0  0  0  0  0  0
   -1.8079   -3.2739   -0.8926 H   0  0  0  0  0  0  0  0  0  0  0  0
   -3.1353   -0.6052    2.2517 H   0  0  0  0  0  0  0  0  0  0  0  0
   -2.2123   -2.1753    3.9172 H   0  0  0  0  0  0  0  0  0  0  0  0
   -0.5066   -3.8307    4.5737 H   0  0  0  0  0  0  0  0  0  0  0  0
    1.5371   -5.1310    4.0511 H   0  0  0  0  0  0  0  0  0  0  0  0
    2.6734   -4.8360    1.8437 H   0  0  0  0  0  0  0  0  0  0  0  0
    1.7855   -3.2459    0.1872 H   0  0  0  0  0  0  0  0  0  0  0  0
   -4.2822    1.7713    1.1789 H   0  0  0  0  0  0  0  0  0  0  0  0
   -4.2118   -1.6694   -1.4115 H   0  0  0  0  0  0  0  0  0  0  0  0
   -6.7068    1.4425    1.5368 H   0  0  0  0  0  0  0  0  0  0  0  0
   -6.6310   -2.0115   -1.0204 H   0  0  0  0  0  0  0  0  0  0  0  0
   -8.8695   -0.4302   -0.4462 H   0  0  0  0  0  0  0  0  0  0  0  0
   -8.5250   -1.5149    0.9121 H   0  0  0  0  0  0  0  0  0  0  0  0
   -8.7309    0.2287    1.2001 H   0  0  0  0  0  0  0  0  0  0  0  0
   -0.6463    1.1312    1.9038 H   0  0  0  0  0  0  0  0  0  0  0  0
   -2.9376    2.8750   -1.3081 H   0  0  0  0  0  0  0  0  0  0  0  0
    0.0564    3.3813    2.6119 H   0  0  0  0  0  0  0  0  0  0  0  0
   -2.2806    5.1290   -0.5461 H   0  0  0  0  0  0  0  0  0  0  0  0
   -1.1244    6.5818    0.9787 H   0  0  0  0  0  0  0  0  0  0  0  0
   -0.7513    5.9367    2.5959 H   0  0  0  0  0  0  0  0  0  0  0  0
    0.4857    5.9018    1.3241 H   0  0  0  0  0  0  0  0  0  0  0  0
    4.4499    1.3398   -0.9882 H   0  0  0  0  0  0  0  0  0  0  0  0
    3.4515   -1.6776    1.9195 H   0  0  0  0  0  0  0  0  0  0  0  0
    6.8000    0.5831   -0.9569 H   0  0  0  0  0  0  0  0  0  0  0  0
    5.8040   -2.4392    1.9329 H   0  0  0  0  0  0  0  0  0  0  0  0
    8.3475   -1.2901    1.5086 H   0  0  0  0  0  0  0  0  0  0  0  0
    7.9813   -2.5210    0.2881 H   0  0  0  0  0  0  0  0  0  0  0  0
    8.5168   -0.9013   -0.2182 H   0  0  0  0  0  0  0  0  0  0  0  0
    3.3861    2.7143    1.2716 H   0  0  0  0  0  0  0  0  0  0  0  0
    0.5031    1.6582   -1.7596 H   0  0  0  0  0  0  0  0  0  0  0  0
    3.2165    5.0833    0.5971 H   0  0  0  0  0  0  0  0  0  0  0  0
    0.3290    4.0233   -2.4054 H   0  0  0  0  0  0  0  0  0  0  0  0
    1.9358    6.3298   -2.3989 H   0  0  0  0  0  0  0  0  0  0  0  0
    0.5683    6.4919   -1.2831 H   0  0  0  0  0  0  0  0  0  0  0  0
    2.2231    6.8288   -0.7159 H   0  0  0  0  0  0  0  0  0  0  0  0
  1  2  2  0  0  0  0
  1 10  1  0  0  0  0
  1 11  1  0  0  0  0
  2  3  1  0  0  0  0
  2 36  1  0  0  0  0
  3  4  2  0  0  0  0
  3 51  1  0  0  0  0
  4  5  1  0  0  0  0
  4 52  1  0  0  0  0
  5  6  2  0  0  0  0
  5 10  1  0  0  0  0
  6  7  1  0  0  0  0
  6 53  1  0  0  0  0
  7  8  2  0  0  0  0
  7 54  1  0  0  0  0
  8  9  1  0  0  0  0
  8 55  1  0  0  0  0
  9 10  2  0  0  0  0
  9 56  1  0  0  0  0
 11 12  2  0  0  0  0
 11 20  1  0  0  0  0
 12 13  1  0  0  0  0
 12 21  1  0  0  0  0
 13 14  2  0  0  0  0
 13 57  1  0  0  0  0
 14 15  1  0  0  0  0
 14 58  1  0  0  0  0
 15 16  2  0  0  0  0
 15 20  1  0  0  0  0
 16 17  1  0  0  0  0
 16 59  1  0  0  0  0
 17 18  2  0  0  0  0
 17 60  1  0  0  0  0
 18 19  1  0  0  0  0
 18 61  1  0  0  0  0
 19 20  2  0  0  0  0
 19 62  1  0  0  0  0
 21 22  1  0  0  0  0
 21 29  1  0  0  0  0
 22 23  2  0  0  0  0
 22 25  1  0  0  0  0
 23 26  1  0  0  0  0
 23 63  1  0  0  0  0
 24 26  2  0  0  0  0
 24 27  1  0  0  0  0
 24 28  1  0  0  0  0
 25 27  2  0  0  0  0
 25 64  1  0  0  0  0
 26 65  1  0  0  0  0
 27 66  1  0  0  0  0
 28 67  1  0  0  0  0
 28 68  1  0  0  0  0
 28 69  1  0  0  0  0
 29 30  2  0  0  0  0
 29 32  1  0  0  0  0
 30 33  1  0  0  0  0
 30 70  1  0  0  0  0
 31 33  2  0  0  0  0
 31 34  1  0  0  0  0
 31 35  1  0  0  0  0
 32 34  2  0  0  0  0
 32 71  1  0  0  0  0
 33 72  1  0  0  0  0
 34 73  1  0  0  0  0
 35 74  1  0  0  0  0
 35 75  1  0  0  0  0
 35 76  1  0  0  0  0
 36 37  1  0  0  0  0
 36 44  1  0  0  0  0
 37 38  2  0  0  0  0
 37 40  1  0  0  0  0
 38 41  1  0  0  0  0
 38 77  1  0  0  0  0
 39 41  2  0  0  0  0
 39 42  1  0  0  0  0
 39 43  1  0  0  0  0
 40 42  2  0  0  0  0
 40 78  1  0  0  0  0
 41 79  1  0  0  0  0
 42 80  1  0  0  0  0
 43 81  1  0  0  0  0
 43 82  1  0  0  0  0
 43 83  1  0  0  0  0
 44 45  2  0  0  0  0
 44 47  1  0  0  0  0
 45 48  1  0  0  0  0
 45 84  1  0  0  0  0
 46 48  2  0  0  0  0
 46 49  1  0  0  0  0
 46 50  1  0  0  0  0
 47 49  2  0  0  0  0
 47 85  1  0  0  0  0
 48 86  1  0  0  0  0
 49 87  1  0  0  0  0
 50 88  1  0  0  0  0
 50 89  1  0  0  0  0
 50 90  1  0  0  0  0
M  END
$$$$
