Title Card Required
 OpenBabel03192317533D

 57 61  0  0  1  0  0  0  0  0999 V2000
    0.1889   -2.0005    0.1910 C   0  0  0  0  0  0  0  0  0  0  0  0
    0.1984   -2.7834    1.5219 C   0  0  0  0  0  0  0  0  0  0  0  0
   -1.2757   -3.1604    1.7043 C   0  0  0  0  0  0  0  0  0  0  0  0
   -1.8220   -3.3840    0.2722 C   0  0  0  0  0  0  0  0  0  0  0  0
   -0.7239   -2.8774   -0.6868 C   0  0  0  0  0  0  0  0  0  0  0  0
   -0.4177   -0.6396    0.4041 C   0  0  0  0  0  0  0  0  0  0  0  0
    1.5575   -1.8155   -0.3931 C   0  0  0  0  0  0  0  0  0  0  0  0
    0.1487    0.0997    1.3857 O   0  0  0  0  0  0  0  0  0  0  0  0
   -0.4815    1.3800    1.3305 C   0  0  0  0  0  0  0  0  0  0  0  0
   -1.6836    1.1592    0.3790 C   0  0  1  0  0  0  0  0  0  0  0  0
   -1.4118   -0.1544   -0.2102 N   0  0  0  0  0  0  0  0  0  0  0  0
    2.0572   -0.7257   -0.7995 N   0  0  0  0  0  0  0  0  0  0  0  0
    3.4382   -1.0120   -1.1854 C   0  0  2  0  0  0  0  0  0  0  0  0
    3.4984   -2.5575   -1.1859 C   0  0  0  0  0  0  0  0  0  0  0  0
    2.3117   -2.9381   -0.4840 O   0  0  0  0  0  0  0  0  0  0  0  0
   -3.0382    1.1738    1.1015 C   0  0  0  0  0  0  0  0  0  0  0  0
   -4.2440    1.1892    0.1904 C   0  0  0  0  0  0  0  0  0  0  0  0
   -4.4430    0.1993   -0.7826 C   0  0  0  0  0  0  0  0  0  0  0  0
   -5.5615    0.2369   -1.6127 C   0  0  0  0  0  0  0  0  0  0  0  0
   -6.5014    1.2603   -1.4876 C   0  0  0  0  0  0  0  0  0  0  0  0
   -6.3132    2.2497   -0.5254 C   0  0  0  0  0  0  0  0  0  0  0  0
   -5.1921    2.2117    0.3035 C   0  0  0  0  0  0  0  0  0  0  0  0
    4.4105   -0.3851   -0.1736 C   0  0  0  0  0  0  0  0  0  0  0  0
    4.2853    1.1133   -0.0665 C   0  0  0  0  0  0  0  0  0  0  0  0
    3.2536    1.6893    0.6869 C   0  0  0  0  0  0  0  0  0  0  0  0
    3.1321    3.0741    0.7733 C   0  0  0  0  0  0  0  0  0  0  0  0
    4.0302    3.9054    0.1020 C   0  0  0  0  0  0  0  0  0  0  0  0
    5.0544    3.3418   -0.6549 C   0  0  0  0  0  0  0  0  0  0  0  0
    5.1794    1.9545   -0.7343 C   0  0  0  0  0  0  0  0  0  0  0  0
    0.8222   -3.6777    1.3804 H   0  0  0  0  0  0  0  0  0  0  0  0
    0.6145   -2.1937    2.3492 H   0  0  0  0  0  0  0  0  0  0  0  0
   -1.4002   -4.0375    2.3534 H   0  0  0  0  0  0  0  0  0  0  0  0
   -1.8090   -2.3271    2.1871 H   0  0  0  0  0  0  0  0  0  0  0  0
   -2.0458   -4.4427    0.0834 H   0  0  0  0  0  0  0  0  0  0  0  0
   -2.7550   -2.8246    0.1224 H   0  0  0  0  0  0  0  0  0  0  0  0
   -1.1181   -2.3096   -1.5384 H   0  0  0  0  0  0  0  0  0  0  0  0
   -0.1168   -3.7120   -1.0649 H   0  0  0  0  0  0  0  0  0  0  0  0
    0.2436    2.1035    0.9287 H   0  0  0  0  0  0  0  0  0  0  0  0
   -0.7734    1.6744    2.3481 H   0  0  0  0  0  0  0  0  0  0  0  0
   -1.7028    1.9163   -0.4190 H   0  0  0  0  0  0  0  0  0  0  0  0
    3.6392   -0.5918   -2.1822 H   0  0  0  0  0  0  0  0  0  0  0  0
    3.4585   -2.9850   -2.1988 H   0  0  0  0  0  0  0  0  0  0  0  0
    4.3698   -2.9632   -0.6542 H   0  0  0  0  0  0  0  0  0  0  0  0
   -3.0704    0.2964    1.7711 H   0  0  0  0  0  0  0  0  0  0  0  0
   -3.0742    2.0662    1.7458 H   0  0  0  0  0  0  0  0  0  0  0  0
   -3.6983   -0.5896   -0.8947 H   0  0  0  0  0  0  0  0  0  0  0  0
   -5.6992   -0.5403   -2.3665 H   0  0  0  0  0  0  0  0  0  0  0  0
   -7.3764    1.2859   -2.1390 H   0  0  0  0  0  0  0  0  0  0  0  0
   -7.0405    3.0562   -0.4182 H   0  0  0  0  0  0  0  0  0  0  0  0
   -5.0509    2.9916    1.0558 H   0  0  0  0  0  0  0  0  0  0  0  0
    4.2172   -0.8508    0.8072 H   0  0  0  0  0  0  0  0  0  0  0  0
    5.4376   -0.6540   -0.4663 H   0  0  0  0  0  0  0  0  0  0  0  0
    2.5370    1.0369    1.1921 H   0  0  0  0  0  0  0  0  0  0  0  0
    2.3327    3.5127    1.3741 H   0  0  0  0  0  0  0  0  0  0  0  0
    3.9324    4.9899    0.1721 H   0  0  0  0  0  0  0  0  0  0  0  0
    5.7632    3.9823   -1.1823 H   0  0  0  0  0  0  0  0  0  0  0  0
    5.9907    1.5168   -1.3219 H   0  0  0  0  0  0  0  0  0  0  0  0
  1  2  1  0  0  0  0
  1  5  1  0  0  0  0
  1  6  1  0  0  0  0
  1  7  1  0  0  0  0
  2  3  1  0  0  0  0
  2 30  1  0  0  0  0
  2 31  1  0  0  0  0
  3  4  1  0  0  0  0
  3 32  1  0  0  0  0
  3 33  1  0  0  0  0
  4  5  1  0  0  0  0
  4 34  1  0  0  0  0
  4 35  1  0  0  0  0
  5 36  1  0  0  0  0
  5 37  1  0  0  0  0
  6  8  1  0  0  0  0
  6 11  2  0  0  0  0
  7 12  2  0  0  0  0
  7 15  1  0  0  0  0
  8  9  1  0  0  0  0
  9 10  1  0  0  0  0
  9 38  1  0  0  0  0
  9 39  1  0  0  0  0
 10 11  1  0  0  0  0
 10 16  1  0  0  0  0
 10 40  1  6  0  0  0
 12 13  1  0  0  0  0
 13 14  1  0  0  0  0
 13 23  1  0  0  0  0
 13 41  1  6  0  0  0
 14 15  1  0  0  0  0
 14 42  1  0  0  0  0
 14 43  1  0  0  0  0
 16 17  1  0  0  0  0
 16 44  1  0  0  0  0
 16 45  1  0  0  0  0
 17 18  2  0  0  0  0
 17 22  1  0  0  0  0
 18 19  1  0  0  0  0
 18 46  1  0  0  0  0
 19 20  2  0  0  0  0
 19 47  1  0  0  0  0
 20 21  1  0  0  0  0
 20 48  1  0  0  0  0
 21 22  2  0  0  0  0
 21 49  1  0  0  0  0
 22 50  1  0  0  0  0
 23 24  1  0  0  0  0
 23 51  1  0  0  0  0
 23 52  1  0  0  0  0
 24 25  2  0  0  0  0
 24 29  1  0  0  0  0
 25 26  1  0  0  0  0
 25 53  1  0  0  0  0
 26 27  2  0  0  0  0
 26 54  1  0  0  0  0
 27 28  1  0  0  0  0
 27 55  1  0  0  0  0
 28 29  2  0  0  0  0
 28 56  1  0  0  0  0
 29 57  1  0  0  0  0
M  END
$$$$
