Title Card Required
 OpenBabel03192317513D

 63 66  0  0  1  0  0  0  0  0999 V2000
    2.3700   -0.8623   -0.7172 O   0  0  0  0  0  0  0  0  0  0  0  0
    2.7759    0.3544   -0.2966 C   0  0  0  0  0  0  0  0  0  0  0  0
    3.9771    0.6934   -0.5164 N   0  0  0  0  0  0  0  0  0  0  0  0
    4.5986   -0.3874   -1.2816 C   0  0  1  0  0  0  0  0  0  0  0  0
    3.5098   -1.4925   -1.3113 C   0  0  0  0  0  0  0  0  0  0  0  0
    5.0666    0.1116   -2.6705 C   0  0  0  0  0  0  0  0  0  0  0  0
    6.1190    1.2043   -2.4608 C   0  0  0  0  0  0  0  0  0  0  0  0
    3.8836    0.6851   -3.4554 C   0  0  0  0  0  0  0  0  0  0  0  0
   -1.1237   -6.4969    0.9343 F   0  0  0  0  0  0  0  0  0  0  0  0
    0.5284   -5.9230    2.1882 F   0  0  0  0  0  0  0  0  0  0  0  0
   -1.4796   -5.4978    2.8085 F   0  0  0  0  0  0  0  0  0  0  0  0
   -0.6725   -5.5398    1.7453 C   0  0  0  0  0  0  0  0  0  0  0  0
   -0.7809   -2.8265   -0.9066 C   0  0  0  0  0  0  0  0  0  0  0  0
   -0.8817   -4.0765   -0.2987 C   0  0  0  0  0  0  0  0  0  0  0  0
   -0.6003   -4.2025    1.0591 C   0  0  0  0  0  0  0  0  0  0  0  0
   -0.2268   -3.0863    1.8095 C   0  0  0  0  0  0  0  0  0  0  0  0
   -0.1379   -1.8391    1.1995 C   0  0  0  0  0  0  0  0  0  0  0  0
   -0.4158   -1.6975   -0.1654 C   0  0  0  0  0  0  0  0  0  0  0  0
   -6.9985    1.0787   -0.5684 F   0  0  0  0  0  0  0  0  0  0  0  0
   -6.2114    3.0783   -0.6678 F   0  0  0  0  0  0  0  0  0  0  0  0
   -6.5640    1.9812   -2.4757 F   0  0  0  0  0  0  0  0  0  0  0  0
   -6.1376    1.8623   -1.2161 C   0  0  0  0  0  0  0  0  0  0  0  0
   -3.0861   -0.2033   -0.2887 C   0  0  0  0  0  0  0  0  0  0  0  0
   -4.4045    0.2512   -0.3424 C   0  0  0  0  0  0  0  0  0  0  0  0
   -4.7316    1.3264   -1.1630 C   0  0  0  0  0  0  0  0  0  0  0  0
   -3.7525    1.9440   -1.9443 C   0  0  0  0  0  0  0  0  0  0  0  0
   -2.4440    1.4786   -1.8965 C   0  0  0  0  0  0  0  0  0  0  0  0
   -2.0915    0.4104   -1.0570 C   0  0  0  0  0  0  0  0  0  0  0  0
   -0.3129   -0.1000   -1.0808 P   0  0  0  0  0  0  0  0  0  0  0  0
    3.2838    4.0169    2.9871 F   0  0  0  0  0  0  0  0  0  0  0  0
    1.5271    5.2148    2.6470 F   0  0  0  0  0  0  0  0  0  0  0  0
    1.5347    3.7507    4.2130 F   0  0  0  0  0  0  0  0  0  0  0  0
    1.9526    3.9911    2.9677 C   0  0  0  0  0  0  0  0  0  0  0  0
    2.2801    2.1387    1.2934 C   0  0  0  0  0  0  0  0  0  0  0  0
    1.4210    2.9612    2.0062 C   0  0  0  0  0  0  0  0  0  0  0  0
    0.0417    2.8367    1.8432 C   0  0  0  0  0  0  0  0  0  0  0  0
   -0.4655    1.8952    0.9550 C   0  0  0  0  0  0  0  0  0  0  0  0
    0.3783    1.0486    0.2172 C   0  0  0  0  0  0  0  0  0  0  0  0
    1.7698    1.1804    0.4097 C   0  0  0  0  0  0  0  0  0  0  0  0
    5.6954   -1.0571   -3.4346 C   0  0  0  0  0  0  0  0  0  0  0  0
    5.4941   -0.7367   -0.7415 H   0  0  0  0  0  0  0  0  0  0  0  0
    3.2337   -1.8226   -2.3215 H   0  0  0  0  0  0  0  0  0  0  0  0
    3.7706   -2.3716   -0.7068 H   0  0  0  0  0  0  0  0  0  0  0  0
    6.9916    0.8080   -1.9185 H   0  0  0  0  0  0  0  0  0  0  0  0
    6.4684    1.5907   -3.4300 H   0  0  0  0  0  0  0  0  0  0  0  0
    5.7014    2.0348   -1.8764 H   0  0  0  0  0  0  0  0  0  0  0  0
    3.0781   -0.0539   -3.5925 H   0  0  0  0  0  0  0  0  0  0  0  0
    3.4599    1.5580   -2.9379 H   0  0  0  0  0  0  0  0  0  0  0  0
    4.2120    1.0066   -4.4551 H   0  0  0  0  0  0  0  0  0  0  0  0
   -0.9892   -2.7295   -1.9751 H   0  0  0  0  0  0  0  0  0  0  0  0
   -1.1714   -4.9536   -0.8778 H   0  0  0  0  0  0  0  0  0  0  0  0
   -0.0100   -3.1950    2.8740 H   0  0  0  0  0  0  0  0  0  0  0  0
    0.1515   -0.9698    1.7930 H   0  0  0  0  0  0  0  0  0  0  0  0
   -2.8361   -1.0421    0.3635 H   0  0  0  0  0  0  0  0  0  0  0  0
   -5.1790   -0.2295    0.2559 H   0  0  0  0  0  0  0  0  0  0  0  0
   -4.0209    2.7786   -2.5946 H   0  0  0  0  0  0  0  0  0  0  0  0
   -1.6795    1.9508   -2.5186 H   0  0  0  0  0  0  0  0  0  0  0  0
    3.3617    2.2227    1.4019 H   0  0  0  0  0  0  0  0  0  0  0  0
   -0.6373    3.4778    2.4086 H   0  0  0  0  0  0  0  0  0  0  0  0
   -1.5463    1.8258    0.8327 H   0  0  0  0  0  0  0  0  0  0  0  0
    4.9673   -1.8547   -3.6467 H   0  0  0  0  0  0  0  0  0  0  0  0
    6.0909   -0.7083   -4.4001 H   0  0  0  0  0  0  0  0  0  0  0  0
    6.5308   -1.4969   -2.8675 H   0  0  0  0  0  0  0  0  0  0  0  0
  1  2  1  0  0  0  0
  1  5  1  0  0  0  0
  2  3  2  0  0  0  0
  2 39  1  0  0  0  0
  3  4  1  0  0  0  0
  4  5  1  0  0  0  0
  4  6  1  0  0  0  0
  4 41  1  1  0  0  0
  5 42  1  0  0  0  0
  5 43  1  0  0  0  0
  6  7  1  0  0  0  0
  6  8  1  0  0  0  0
  6 40  1  0  0  0  0
  7 44  1  0  0  0  0
  7 45  1  0  0  0  0
  7 46  1  0  0  0  0
  8 47  1  0  0  0  0
  8 48  1  0  0  0  0
  8 49  1  0  0  0  0
  9 12  1  0  0  0  0
 10 12  1  0  0  0  0
 11 12  1  0  0  0  0
 12 15  1  0  0  0  0
 13 14  2  0  0  0  0
 13 18  1  0  0  0  0
 13 50  1  0  0  0  0
 14 15  1  0  0  0  0
 14 51  1  0  0  0  0
 15 16  2  0  0  0  0
 16 17  1  0  0  0  0
 16 52  1  0  0  0  0
 17 18  2  0  0  0  0
 17 53  1  0  0  0  0
 18 29  1  0  0  0  0
 19 22  1  0  0  0  0
 20 22  1  0  0  0  0
 21 22  1  0  0  0  0
 22 25  1  0  0  0  0
 23 24  2  0  0  0  0
 23 28  1  0  0  0  0
 23 54  1  0  0  0  0
 24 25  1  0  0  0  0
 24 55  1  0  0  0  0
 25 26  2  0  0  0  0
 26 27  1  0  0  0  0
 26 56  1  0  0  0  0
 27 28  2  0  0  0  0
 27 57  1  0  0  0  0
 28 29  1  0  0  0  0
 29 38  1  0  0  0  0
 30 33  1  0  0  0  0
 31 33  1  0  0  0  0
 32 33  1  0  0  0  0
 33 35  1  0  0  0  0
 34 35  2  0  0  0  0
 34 39  1  0  0  0  0
 34 58  1  0  0  0  0
 35 36  1  0  0  0  0
 36 37  2  0  0  0  0
 36 59  1  0  0  0  0
 37 38  1  0  0  0  0
 37 60  1  0  0  0  0
 38 39  2  0  0  0  0
 40 61  1  0  0  0  0
 40 62  1  0  0  0  0
 40 63  1  0  0  0  0
M  END
$$$$
