Title Card Required
 OpenBabel03192317513D

 78 83  0  0  1  0  0  0  0  0999 V2000
   -0.0464   -1.4295   -1.3883 P   0  0  1  0  0  0  0  0  0  0  0  0
   -0.0383   -1.1559   -2.8161 O   0  0  0  0  0  0  0  0  0  0  0  0
   -0.0855   -2.9811   -1.0136 O   0  0  0  0  0  0  0  0  0  0  0  0
    1.3068   -0.9660   -0.6045 O   0  0  0  0  0  0  0  0  0  0  0  0
   -1.3986   -0.9614   -0.5896 O   0  0  0  0  0  0  0  0  0  0  0  0
    0.2106    0.4056    1.0093 C   0  0  1  0  0  3  0  0  0  0  0  0
    1.3922   -0.1989    0.5105 C   0  0  0  0  0  0  0  0  0  0  0  0
    2.6744    0.2600    1.0008 C   0  0  0  0  0  0  0  0  0  0  0  0
    2.6005    1.2622    1.9654 C   0  0  0  0  0  3  0  0  0  0  0  0
    1.3707    1.4410    2.7451 C   0  0  1  0  0  3  0  0  0  0  0  0
   -0.3376    1.9503    2.8492 C   0  0  0  0  0  0  0  0  0  0  0  0
   -0.5314    2.6704    4.1744 C   0  0  0  0  0  0  0  0  0  0  0  0
    0.2307    1.7059    5.1384 C   0  0  0  0  0  0  0  0  0  0  0  0
    0.3368    0.2913    4.4296 C   0  0  0  0  0  0  0  0  0  0  0  0
    0.4969    0.3107    2.6062 C   0  0  1  0  0  3  0  0  0  0  0  0
   -0.2958    1.1390   -0.5785 C   0  0  0  0  0  0  0  0  0  0  0  0
   -1.5387    0.3990   -0.5829 C   0  0  0  0  0  0  0  0  0  0  0  0
   -2.7455    1.1087   -0.2586 C   0  0  0  0  0  0  0  0  0  0  0  0
   -2.5658    2.4923   -0.1649 C   0  0  0  0  0  0  0  0  0  0  0  0
   -1.3690    3.0977   -0.7429 C   0  0  0  0  0  3  0  0  0  0  0  0
   -0.1554    3.9905    0.0837 C   0  0  0  0  0  3  0  0  0  0  0  0
    0.2681    5.1110   -0.9162 C   0  0  0  0  0  0  0  0  0  0  0  0
   -0.1307    4.8395   -2.4035 C   0  0  0  0  0  0  0  0  0  0  0  0
   -0.2366    3.3776   -2.8304 C   0  0  0  0  0  0  0  0  0  0  0  0
   -0.6001    2.2571   -1.6293 C   0  0  0  0  0  0  0  0  0  0  0  0
   -4.0449    0.4484   -0.0264 C   0  0  0  0  0  0  0  0  0  0  0  0
   -4.0988   -0.6811    0.7880 C   0  0  0  0  0  0  0  0  0  0  0  0
   -5.1962   -1.5140    0.7590 C   0  0  0  0  0  0  0  0  0  0  0  0
   -6.3126   -1.2042   -0.0183 C   0  0  0  0  0  0  0  0  0  0  0  0
   -6.2862   -0.0552   -0.7842 C   0  0  0  0  0  0  0  0  0  0  0  0
   -5.1703    0.7673   -0.7860 C   0  0  0  0  0  0  0  0  0  0  0  0
   -7.4323    0.2896   -1.6776 C   0  0  0  0  0  0  0  0  0  0  0  0
   -8.3524   -0.6616   -1.6696 F   0  0  0  0  0  0  0  0  0  0  0  0
   -8.0135    1.4214   -1.3028 F   0  0  0  0  0  0  0  0  0  0  0  0
   -7.0260    0.4549   -2.9275 F   0  0  0  0  0  0  0  0  0  0  0  0
   -5.1751   -2.8170    1.4807 C   0  0  0  0  0  0  0  0  0  0  0  0
   -4.0425   -2.9877    2.1390 F   0  0  0  0  0  0  0  0  0  0  0  0
   -6.1743   -2.9011    2.3501 F   0  0  0  0  0  0  0  0  0  0  0  0
   -5.3157   -3.8212    0.6284 F   0  0  0  0  0  0  0  0  0  0  0  0
    3.9664   -0.2153    0.4916 C   0  0  0  0  0  0  0  0  0  0  0  0
    5.0136    0.6825    0.2612 C   0  0  0  0  0  0  0  0  0  0  0  0
    6.1945    0.2657   -0.3173 C   0  0  0  0  0  0  0  0  0  0  0  0
    6.3831   -1.0651   -0.6685 C   0  0  0  0  0  0  0  0  0  0  0  0
    5.3363   -1.9541   -0.4657 C   0  0  0  0  0  0  0  0  0  0  0  0
    4.1565   -1.5457    0.1286 C   0  0  0  0  0  0  0  0  0  0  0  0
    5.4975   -3.3896   -0.8352 C   0  0  0  0  0  0  0  0  0  0  0  0
    6.7604   -3.6824   -1.0920 F   0  0  0  0  0  0  0  0  0  0  0  0
    5.0906   -4.1732    0.1557 F   0  0  0  0  0  0  0  0  0  0  0  0
    4.7772   -3.7067   -1.8999 F   0  0  0  0  0  0  0  0  0  0  0  0
    7.3374    1.2167   -0.4670 C   0  0  0  0  0  0  0  0  0  0  0  0
    6.9764    2.4603   -0.1805 F   0  0  0  0  0  0  0  0  0  0  0  0
    8.3370    0.8930    0.3417 F   0  0  0  0  0  0  0  0  0  0  0  0
    7.8197    1.2073   -1.7027 F   0  0  0  0  0  0  0  0  0  0  0  0
    0.3223   -3.4797   -1.7308 H   0  0  0  0  0  0  0  0  0  0  0  0
    3.5396    1.6810    2.3449 H   0  0  0  0  0  0  0  0  0  0  0  0
   -0.8282    2.1637    1.8864 H   0  0  0  0  0  0  0  0  0  0  0  0
   -1.0427    1.0978    2.9956 H   0  0  0  0  0  0  0  0  0  0  0  0
   -1.6083    2.7074    4.3906 H   0  0  0  0  0  0  0  0  0  0  0  0
   -0.1487    3.6983    4.1230 H   0  0  0  0  0  0  0  0  0  0  0  0
   -0.2216    1.5744    6.1359 H   0  0  0  0  0  0  0  0  0  0  0  0
    1.2336    2.1246    5.2696 H   0  0  0  0  0  0  0  0  0  0  0  0
   -0.4754   -0.3966    4.7399 H   0  0  0  0  0  0  0  0  0  0  0  0
    1.2959   -0.0914    4.7865 H   0  0  0  0  0  0  0  0  0  0  0  0
   -3.4175    3.1219    0.1155 H   0  0  0  0  0  0  0  0  0  0  0  0
    0.1565    4.0404    1.1433 H   0  0  0  0  0  0  0  0  0  0  0  0
    0.6114    3.1848   -0.0461 H   0  0  0  0  0  0  0  0  0  0  0  0
    1.3537    5.2385   -0.7955 H   0  0  0  0  0  0  0  0  0  0  0  0
   -0.2425    6.0174   -0.5600 H   0  0  0  0  0  0  0  0  0  0  0  0
    0.4937    5.2978   -3.1879 H   0  0  0  0  0  0  0  0  0  0  0  0
   -1.1210    5.3133   -2.4186 H   0  0  0  0  0  0  0  0  0  0  0  0
    0.6171    2.9808   -3.4110 H   0  0  0  0  0  0  0  0  0  0  0  0
   -1.1128    3.4609   -3.4843 H   0  0  0  0  0  0  0  0  0  0  0  0
   -3.2308   -0.9588    1.3893 H   0  0  0  0  0  0  0  0  0  0  0  0
   -7.1621   -1.8860   -0.0703 H   0  0  0  0  0  0  0  0  0  0  0  0
   -5.1488    1.6340   -1.4532 H   0  0  0  0  0  0  0  0  0  0  0  0
    4.8842    1.7359    0.5037 H   0  0  0  0  0  0  0  0  0  0  0  0
    7.3323   -1.3987   -1.0948 H   0  0  0  0  0  0  0  0  0  0  0  0
    3.3542   -2.2697    0.2748 H   0  0  0  0  0  0  0  0  0  0  0  0
  1  2  2  6  0  0  0
  1  3  1  0  0  0  0
  1  4  1  0  0  0  0
  1  5  1  0  0  0  0
  3 54  1  0  0  0  0
  4  7  1  0  0  0  0
  5 17  1  0  0  0  0
  6  7  1  6  0  0  0
  6 15  1  0  0  0  0
  6 16  1  0  0  0  0
  7  8  2  0  0  0  0
  8  9  1  0  0  0  0
  8 40  1  0  0  0  0
  9 55  1  0  0  0  0
 10  9  1  6  0  0  0
 10 11  1  0  0  0  0
 10 15  1  0  0  0  0
 11 12  1  0  0  0  0
 11 56  1  0  0  0  0
 11 57  1  0  0  0  0
 12 13  1  0  0  0  0
 12 58  1  0  0  0  0
 12 59  1  0  0  0  0
 13 14  1  0  0  0  0
 13 60  1  0  0  0  0
 13 61  1  0  0  0  0
 14 62  1  0  0  0  0
 14 63  1  0  0  0  0
 15 14  1  1  0  0  0
 16 17  2  0  0  0  0
 16 25  1  0  0  0  0
 17 18  1  0  0  0  0
 18 19  2  0  0  0  0
 18 26  1  0  0  0  0
 19 20  1  0  0  0  0
 19 64  1  0  0  0  0
 20 25  2  0  0  0  0
 21 22  1  0  0  0  0
 21 65  1  0  0  0  0
 21 66  1  0  0  0  0
 22 23  1  0  0  0  0
 22 67  1  0  0  0  0
 22 68  1  0  0  0  0
 23 24  1  0  0  0  0
 23 69  1  0  0  0  0
 23 70  1  0  0  0  0
 24 25  1  0  0  0  0
 24 71  1  0  0  0  0
 24 72  1  0  0  0  0
 26 27  2  0  0  0  0
 26 31  1  0  0  0  0
 27 28  1  0  0  0  0
 27 73  1  0  0  0  0
 28 29  2  0  0  0  0
 28 36  1  0  0  0  0
 29 30  1  0  0  0  0
 29 74  1  0  0  0  0
 30 31  2  0  0  0  0
 30 32  1  0  0  0  0
 31 75  1  0  0  0  0
 32 33  1  0  0  0  0
 32 34  1  0  0  0  0
 32 35  1  0  0  0  0
 36 37  1  0  0  0  0
 36 38  1  0  0  0  0
 36 39  1  0  0  0  0
 40 41  2  0  0  0  0
 40 45  1  0  0  0  0
 41 42  1  0  0  0  0
 41 76  1  0  0  0  0
 42 43  2  0  0  0  0
 42 50  1  0  0  0  0
 43 44  1  0  0  0  0
 43 77  1  0  0  0  0
 44 45  2  0  0  0  0
 44 46  1  0  0  0  0
 45 78  1  0  0  0  0
 46 47  1  0  0  0  0
 46 48  1  0  0  0  0
 46 49  1  0  0  0  0
 50 51  1  0  0  0  0
 50 52  1  0  0  0  0
 50 53  1  0  0  0  0
M  END
$$$$
