Title Card Required
 OpenBabel03192317483D

 72 77  0  0  0  0  0  0  0  0999 V2000
    1.8409    1.8422   -2.2353 C   0  0  0  0  0  0  0  0  0  0  0  0
    0.6711    1.7559   -1.4623 C   0  0  0  0  0  0  0  0  0  0  0  0
    0.6365    0.9105   -0.3388 C   0  0  0  0  0  0  0  0  0  0  0  0
    1.7657    0.1618    0.0132 C   0  0  0  0  0  0  0  0  0  0  0  0
    2.9399    0.2278   -0.7599 C   0  0  0  0  0  0  0  0  0  0  0  0
    2.9485    1.0773   -1.8665 C   0  0  0  0  0  0  0  0  0  0  0  0
   -0.5935    0.7975    0.5001 C   0  0  0  0  0  0  0  0  0  0  0  0
   -0.6745    1.4210    1.7582 C   0  0  0  0  0  0  0  0  0  0  0  0
   -1.8473    1.3017    2.5216 C   0  0  0  0  0  0  0  0  0  0  0  0
   -2.9121    0.5602    2.0081 C   0  0  0  0  0  0  0  0  0  0  0  0
   -2.8569   -0.0705    0.7654 C   0  0  0  0  0  0  0  0  0  0  0  0
   -1.6800    0.0662    0.0061 C   0  0  0  0  0  0  0  0  0  0  0  0
    1.6839   -0.6081    1.1281 O   0  0  0  0  0  0  0  0  0  0  0  0
   -1.5577   -0.4811   -1.2298 O   0  0  0  0  0  0  0  0  0  0  0  0
    1.9286    2.7468   -3.4485 C   0  0  0  0  0  0  0  0  0  0  0  0
    0.5591    3.1562   -3.9802 C   0  0  0  0  0  0  0  0  0  0  0  0
   -0.3061    3.6624   -2.8314 C   0  0  0  0  0  0  0  0  0  0  0  0
   -0.5694    2.5435   -1.8288 C   0  0  0  0  0  0  0  0  0  0  0  0
    0.5203    2.1948    2.2743 C   0  0  0  0  0  0  0  0  0  0  0  0
    0.2012    3.0835    3.4732 C   0  0  0  0  0  0  0  0  0  0  0  0
   -0.6360    2.3211    4.4946 C   0  0  0  0  0  0  0  0  0  0  0  0
   -1.9834    1.9593    3.8803 C   0  0  0  0  0  0  0  0  0  0  0  0
    4.1381   -0.5790   -0.4086 C   0  0  0  0  0  0  0  0  0  0  0  0
   -4.0110   -0.8566    0.2549 C   0  0  0  0  0  0  0  0  0  0  0  0
    4.0485   -1.9539   -0.1623 C   0  0  0  0  0  0  0  0  0  0  0  0
    5.1745   -2.7198    0.1498 C   0  0  0  0  0  0  0  0  0  0  0  0
    6.4303   -2.1093    0.2114 C   0  0  0  0  0  0  0  0  0  0  0  0
    6.5386   -0.7336   -0.0405 C   0  0  0  0  0  0  0  0  0  0  0  0
    5.4116    0.0138   -0.3410 C   0  0  0  0  0  0  0  0  0  0  0  0
   -5.2994   -0.3155    0.2436 C   0  0  0  0  0  0  0  0  0  0  0  0
   -6.3986   -1.0451   -0.2106 C   0  0  0  0  0  0  0  0  0  0  0  0
   -6.2189   -2.3519   -0.6762 C   0  0  0  0  0  0  0  0  0  0  0  0
   -4.9339   -2.9117   -0.6719 C   0  0  0  0  0  0  0  0  0  0  0  0
   -3.8524   -2.1762   -0.2100 C   0  0  0  0  0  0  0  0  0  0  0  0
   -7.2142   -3.1372   -1.1419 O   0  0  0  0  0  0  0  0  0  0  0  0
   -8.5172   -2.6178   -1.1654 C   0  0  0  0  0  0  0  0  0  0  0  0
    7.5787   -2.7566    0.5043 O   0  0  0  0  0  0  0  0  0  0  0  0
    7.5217   -4.1366    0.7495 C   0  0  0  0  0  0  0  0  0  0  0  0
    3.8532    1.1204   -2.4798 H   0  0  0  0  0  0  0  0  0  0  0  0
   -3.8194    0.4451    2.6081 H   0  0  0  0  0  0  0  0  0  0  0  0
    2.5609   -0.9546    1.3381 H   0  0  0  0  0  0  0  0  0  0  0  0
   -2.4102   -0.8442   -1.5028 H   0  0  0  0  0  0  0  0  0  0  0  0
    2.4917    3.6571   -3.1762 H   0  0  0  0  0  0  0  0  0  0  0  0
    2.5179    2.2467   -4.2322 H   0  0  0  0  0  0  0  0  0  0  0  0
    0.0673    2.2868   -4.4487 H   0  0  0  0  0  0  0  0  0  0  0  0
    0.6711    3.9233   -4.7607 H   0  0  0  0  0  0  0  0  0  0  0  0
   -1.2618    4.0616   -3.2019 H   0  0  0  0  0  0  0  0  0  0  0  0
    0.2153    4.4969   -2.3315 H   0  0  0  0  0  0  0  0  0  0  0  0
   -1.3034    1.8326   -2.2466 H   0  0  0  0  0  0  0  0  0  0  0  0
   -1.0301    2.9432   -0.9124 H   0  0  0  0  0  0  0  0  0  0  0  0
    1.2960    1.4598    2.5497 H   0  0  0  0  0  0  0  0  0  0  0  0
    0.9512    2.7876    1.4528 H   0  0  0  0  0  0  0  0  0  0  0  0
    1.1360    3.4513    3.9211 H   0  0  0  0  0  0  0  0  0  0  0  0
   -0.3635    3.9718    3.1416 H   0  0  0  0  0  0  0  0  0  0  0  0
   -0.1015    1.4015    4.7878 H   0  0  0  0  0  0  0  0  0  0  0  0
   -0.7838    2.9145    5.4089 H   0  0  0  0  0  0  0  0  0  0  0  0
   -2.5851    2.8799    3.7766 H   0  0  0  0  0  0  0  0  0  0  0  0
   -2.5537    1.2961    4.5485 H   0  0  0  0  0  0  0  0  0  0  0  0
    3.0765   -2.4481   -0.2363 H   0  0  0  0  0  0  0  0  0  0  0  0
    5.0576   -3.7878    0.3273 H   0  0  0  0  0  0  0  0  0  0  0  0
    7.5275   -0.2779    0.0182 H   0  0  0  0  0  0  0  0  0  0  0  0
    5.5067    1.0867   -0.5201 H   0  0  0  0  0  0  0  0  0  0  0  0
   -5.4452    0.7091    0.5920 H   0  0  0  0  0  0  0  0  0  0  0  0
   -7.3842   -0.5820   -0.2037 H   0  0  0  0  0  0  0  0  0  0  0  0
   -4.8175   -3.9359   -1.0270 H   0  0  0  0  0  0  0  0  0  0  0  0
   -2.8610   -2.6354   -0.1880 H   0  0  0  0  0  0  0  0  0  0  0  0
   -8.8661   -2.3536   -0.1532 H   0  0  0  0  0  0  0  0  0  0  0  0
   -8.5844   -1.7260   -1.8108 H   0  0  0  0  0  0  0  0  0  0  0  0
   -9.1626   -3.4036   -1.5727 H   0  0  0  0  0  0  0  0  0  0  0  0
    6.8849   -4.3675    1.6198 H   0  0  0  0  0  0  0  0  0  0  0  0
    7.1413   -4.6868   -0.1273 H   0  0  0  0  0  0  0  0  0  0  0  0
    8.5467   -4.4617    0.9594 H   0  0  0  0  0  0  0  0  0  0  0  0
  1  2  2  0  0  0  0
  1  6  1  0  0  0  0
  1 15  1  0  0  0  0
  2  3  1  0  0  0  0
  2 18  1  0  0  0  0
  3  4  2  0  0  0  0
  3  7  1  0  0  0  0
  4  5  1  0  0  0  0
  4 13  1  0  0  0  0
  5  6  2  0  0  0  0
  5 23  1  0  0  0  0
  6 39  1  0  0  0  0
  7  8  2  0  0  0  0
  7 12  1  0  0  0  0
  8  9  1  0  0  0  0
  8 19  1  0  0  0  0
  9 10  2  0  0  0  0
  9 22  1  0  0  0  0
 10 11  1  0  0  0  0
 10 40  1  0  0  0  0
 11 12  2  0  0  0  0
 11 24  1  0  0  0  0
 12 14  1  0  0  0  0
 13 41  1  0  0  0  0
 14 42  1  0  0  0  0
 15 16  1  0  0  0  0
 15 43  1  0  0  0  0
 15 44  1  0  0  0  0
 16 17  1  0  0  0  0
 16 45  1  0  0  0  0
 16 46  1  0  0  0  0
 17 18  1  0  0  0  0
 17 47  1  0  0  0  0
 17 48  1  0  0  0  0
 18 49  1  0  0  0  0
 18 50  1  0  0  0  0
 19 20  1  0  0  0  0
 19 51  1  0  0  0  0
 19 52  1  0  0  0  0
 20 21  1  0  0  0  0
 20 53  1  0  0  0  0
 20 54  1  0  0  0  0
 21 22  1  0  0  0  0
 21 55  1  0  0  0  0
 21 56  1  0  0  0  0
 22 57  1  0  0  0  0
 22 58  1  0  0  0  0
 23 25  2  0  0  0  0
 23 29  1  0  0  0  0
 24 30  2  0  0  0  0
 24 34  1  0  0  0  0
 25 26  1  0  0  0  0
 25 59  1  0  0  0  0
 26 27  2  0  0  0  0
 26 60  1  0  0  0  0
 27 28  1  0  0  0  0
 27 37  1  0  0  0  0
 28 29  2  0  0  0  0
 28 61  1  0  0  0  0
 29 62  1  0  0  0  0
 30 31  1  0  0  0  0
 30 63  1  0  0  0  0
 31 32  2  0  0  0  0
 31 64  1  0  0  0  0
 32 33  1  0  0  0  0
 32 35  1  0  0  0  0
 33 34  2  0  0  0  0
 33 65  1  0  0  0  0
 34 66  1  0  0  0  0
 35 36  1  0  0  0  0
 36 67  1  0  0  0  0
 36 68  1  0  0  0  0
 36 69  1  0  0  0  0
 37 38  1  0  0  0  0
 38 70  1  0  0  0  0
 38 71  1  0  0  0  0
 38 72  1  0  0  0  0
M  END
$$$$
