Title Card Required
 OpenBabel03192317413D

 33 36  0  0  1  0  0  0  0  0999 V2000
   -0.5245   -0.5786   -0.3450 C   0  0  0  0  0  0  0  0  0  0  0  0
    0.7129   -0.7407   -0.5511 N   0  0  0  0  0  0  0  0  0  0  0  0
    1.5453    0.4484   -0.5833 C   0  0  1  0  0  0  0  0  0  0  0  0
    0.9911    1.5441    0.3413 C   0  0  0  0  0  0  0  0  0  0  0  0
   -0.4609    1.8563   -0.0023 C   0  0  0  0  0  0  0  0  0  0  0  0
   -1.2022    0.6119   -0.1199 N   0  0  0  0  0  0  0  0  0  0  0  0
   -1.6787   -1.9376   -0.3083 S   0  0  0  0  0  0  0  0  0  0  0  0
   -2.5746    0.4983    0.0352 C   0  0  0  0  0  0  0  0  0  0  0  0
   -3.0199   -0.8347   -0.0340 C   0  0  0  0  0  0  0  0  0  0  0  0
   -4.3662   -1.1424    0.1043 C   0  0  0  0  0  0  0  0  0  0  0  0
   -5.2785   -0.1037    0.3115 C   0  0  0  0  0  0  0  0  0  0  0  0
   -4.8392    1.2177    0.3738 C   0  0  0  0  0  0  0  0  0  0  0  0
   -3.4856    1.5343    0.2341 C   0  0  0  0  0  0  0  0  0  0  0  0
    2.9844    0.1237   -0.2279 C   0  0  0  0  0  0  0  0  0  0  0  0
    3.9940    1.0512   -0.5084 C   0  0  0  0  0  0  0  0  0  0  0  0
    5.3154    0.7936   -0.1525 C   0  0  0  0  0  0  0  0  0  0  0  0
    5.6442   -0.4009    0.4898 C   0  0  0  0  0  0  0  0  0  0  0  0
    4.6446   -1.3313    0.7658 C   0  0  0  0  0  0  0  0  0  0  0  0
    3.3213   -1.0726    0.4068 C   0  0  0  0  0  0  0  0  0  0  0  0
    1.5431    0.8418   -1.6186 H   0  0  0  0  0  0  0  0  0  0  0  0
    1.0610    1.1828    1.3795 H   0  0  0  0  0  0  0  0  0  0  0  0
    1.5949    2.4585    0.2675 H   0  0  0  0  0  0  0  0  0  0  0  0
   -0.9214    2.4616    0.7927 H   0  0  0  0  0  0  0  0  0  0  0  0
   -0.5309    2.4275   -0.9437 H   0  0  0  0  0  0  0  0  0  0  0  0
   -4.7033   -2.1785    0.0510 H   0  0  0  0  0  0  0  0  0  0  0  0
   -6.3388   -0.3317    0.4217 H   0  0  0  0  0  0  0  0  0  0  0  0
   -5.5602    2.0211    0.5294 H   0  0  0  0  0  0  0  0  0  0  0  0
   -3.1500    2.5709    0.2723 H   0  0  0  0  0  0  0  0  0  0  0  0
    3.7440    1.9842   -1.0216 H   0  0  0  0  0  0  0  0  0  0  0  0
    6.0932    1.5242   -0.3809 H   0  0  0  0  0  0  0  0  0  0  0  0
    6.6792   -0.6067    0.7674 H   0  0  0  0  0  0  0  0  0  0  0  0
    4.8957   -2.2710    1.2608 H   0  0  0  0  0  0  0  0  0  0  0  0
    2.5326   -1.8010    0.5966 H   0  0  0  0  0  0  0  0  0  0  0  0
  1  2  2  0  0  0  0
  1  6  1  0  0  0  0
  1  7  1  0  0  0  0
  2  3  1  0  0  0  0
  3  4  1  0  0  0  0
  3 14  1  0  0  0  0
  3 20  1  6  0  0  0
  4  5  1  0  0  0  0
  4 21  1  0  0  0  0
  4 22  1  0  0  0  0
  5  6  1  0  0  0  0
  5 23  1  0  0  0  0
  5 24  1  0  0  0  0
  6  8  1  0  0  0  0
  7  9  1  0  0  0  0
  8  9  2  0  0  0  0
  8 13  1  0  0  0  0
  9 10  1  0  0  0  0
 10 11  2  0  0  0  0
 10 25  1  0  0  0  0
 11 12  1  0  0  0  0
 11 26  1  0  0  0  0
 12 13  2  0  0  0  0
 12 27  1  0  0  0  0
 13 28  1  0  0  0  0
 14 15  2  0  0  0  0
 14 19  1  0  0  0  0
 15 16  1  0  0  0  0
 15 29  1  0  0  0  0
 16 17  2  0  0  0  0
 16 30  1  0  0  0  0
 17 18  1  0  0  0  0
 17 31  1  0  0  0  0
 18 19  2  0  0  0  0
 18 32  1  0  0  0  0
 19 33  1  0  0  0  0
M  END
$$$$
