Title Card Required
 OpenBabel03192317553D

 51 53  0  0  1  0  0  0  0  0999 V2000
   -1.4139   -0.7284   -0.7667 C   0  0  0  0  0  0  0  0  0  0  0  0
   -1.9170    0.4345   -1.3527 C   0  0  0  0  0  0  0  0  0  0  0  0
   -3.1643    0.8885   -0.9501 C   0  0  0  0  0  0  0  0  0  0  0  0
   -3.9023    0.1947    0.0157 C   0  0  0  0  0  0  0  0  0  0  0  0
   -3.3821   -0.9639    0.5740 C   0  0  0  0  0  0  0  0  0  0  0  0
   -2.1266   -1.4413    0.1836 C   0  0  0  0  0  0  0  0  0  0  0  0
    0.1852   -1.3298   -1.2831 S   0  0  0  0  0  0  0  0  0  0  0  0
    0.3861   -2.5942   -0.5889 O   0  0  0  0  0  0  0  0  0  0  0  0
    0.2768   -1.2478   -2.7272 O   0  0  0  0  0  0  0  0  0  0  0  0
    1.1932   -0.1507   -0.7142 N   0  0  0  0  0  0  0  0  0  0  0  0
   -4.1543   -1.7395    1.6119 C   0  0  0  0  0  0  0  0  0  0  0  0
   -5.3040   -1.1419    1.9184 F   0  0  0  0  0  0  0  0  0  0  0  0
   -4.4350   -2.9682    1.1813 F   0  0  0  0  0  0  0  0  0  0  0  0
   -3.4480   -1.8682    2.7346 F   0  0  0  0  0  0  0  0  0  0  0  0
   -3.7637    2.1389   -1.5430 C   0  0  0  0  0  0  0  0  0  0  0  0
   -2.9389    2.7212   -2.4083 F   0  0  0  0  0  0  0  0  0  0  0  0
   -4.9023    1.8672   -2.1814 F   0  0  0  0  0  0  0  0  0  0  0  0
   -4.0520    3.0256   -0.5901 F   0  0  0  0  0  0  0  0  0  0  0  0
    1.5874   -0.1377    0.6920 C   0  0  1  0  0  0  0  0  0  0  0  0
    2.6892   -1.1928    1.0238 C   0  0  1  0  0  0  0  0  0  0  0  0
    3.8635   -1.0854    0.0630 C   0  0  0  0  0  0  0  0  0  0  0  0
    4.9645   -0.2645    0.3288 C   0  0  0  0  0  0  0  0  0  0  0  0
    6.0045   -0.1469   -0.5927 C   0  0  0  0  0  0  0  0  0  0  0  0
    5.9583   -0.8511   -1.7954 C   0  0  0  0  0  0  0  0  0  0  0  0
    4.8694   -1.6783   -2.0694 C   0  0  0  0  0  0  0  0  0  0  0  0
    3.8318   -1.7957   -1.1452 C   0  0  0  0  0  0  0  0  0  0  0  0
    1.9799    1.2631    1.1167 C   0  0  0  0  0  0  0  0  0  0  0  0
    2.6717    2.1258    0.2597 C   0  0  0  0  0  0  0  0  0  0  0  0
    3.0637    3.3915    0.6926 C   0  0  0  0  0  0  0  0  0  0  0  0
    2.7692    3.8117    1.9888 C   0  0  0  0  0  0  0  0  0  0  0  0
    2.0790    2.9596    2.8498 C   0  0  0  0  0  0  0  0  0  0  0  0
    1.6868    1.6945    2.4152 C   0  0  0  0  0  0  0  0  0  0  0  0
    2.9870   -1.1038    2.4387 N   0  0  0  0  0  0  0  0  0  0  0  0
   -1.3373    0.9686   -2.1072 H   0  0  0  0  0  0  0  0  0  0  0  0
   -4.8809    0.5615    0.3303 H   0  0  0  0  0  0  0  0  0  0  0  0
   -1.7016   -2.3544    0.6065 H   0  0  0  0  0  0  0  0  0  0  0  0
    1.9337    0.0048   -1.3997 H   0  0  0  0  0  0  0  0  0  0  0  0
    0.7049   -0.4324    1.2819 H   0  0  0  0  0  0  0  0  0  0  0  0
    2.2104   -2.1663    0.8454 H   0  0  0  0  0  0  0  0  0  0  0  0
    5.0126    0.2947    1.2659 H   0  0  0  0  0  0  0  0  0  0  0  0
    6.8557    0.4981   -0.3686 H   0  0  0  0  0  0  0  0  0  0  0  0
    6.7727   -0.7603   -2.5157 H   0  0  0  0  0  0  0  0  0  0  0  0
    4.8293   -2.2418   -3.0028 H   0  0  0  0  0  0  0  0  0  0  0  0
    2.9835   -2.4540   -1.3565 H   0  0  0  0  0  0  0  0  0  0  0  0
    2.9142    1.8152   -0.7584 H   0  0  0  0  0  0  0  0  0  0  0  0
    3.6008    4.0528    0.0111 H   0  0  0  0  0  0  0  0  0  0  0  0
    3.0734    4.8038    2.3254 H   0  0  0  0  0  0  0  0  0  0  0  0
    1.8374    3.2825    3.8635 H   0  0  0  0  0  0  0  0  0  0  0  0
    1.1524    1.0232    3.0904 H   0  0  0  0  0  0  0  0  0  0  0  0
    3.6083   -1.8604    2.7158 H   0  0  0  0  0  0  0  0  0  0  0  0
    3.4560   -0.2281    2.6647 H   0  0  0  0  0  0  0  0  0  0  0  0
  1  2  2  0  0  0  0
  1  6  1  0  0  0  0
  1  7  1  0  0  0  0
  2  3  1  0  0  0  0
  2 34  1  0  0  0  0
  3  4  2  0  0  0  0
  3 15  1  0  0  0  0
  4  5  1  0  0  0  0
  4 35  1  0  0  0  0
  5  6  2  0  0  0  0
  5 11  1  0  0  0  0
  6 36  1  0  0  0  0
  7  8  2  0  0  0  0
  7  9  2  0  0  0  0
  7 10  1  0  0  0  0
 10 19  1  0  0  0  0
 10 37  1  0  0  0  0
 11 12  1  0  0  0  0
 11 13  1  0  0  0  0
 11 14  1  0  0  0  0
 15 16  1  0  0  0  0
 15 17  1  0  0  0  0
 15 18  1  0  0  0  0
 19 20  1  0  0  0  0
 19 27  1  0  0  0  0
 19 38  1  1  0  0  0
 20 21  1  0  0  0  0
 20 33  1  0  0  0  0
 20 39  1  6  0  0  0
 21 22  2  0  0  0  0
 21 26  1  0  0  0  0
 22 23  1  0  0  0  0
 22 40  1  0  0  0  0
 23 24  2  0  0  0  0
 23 41  1  0  0  0  0
 24 25  1  0  0  0  0
 24 42  1  0  0  0  0
 25 26  2  0  0  0  0
 25 43  1  0  0  0  0
 26 44  1  0  0  0  0
 27 28  2  0  0  0  0
 27 32  1  0  0  0  0
 28 29  1  0  0  0  0
 28 45  1  0  0  0  0
 29 30  2  0  0  0  0
 29 46  1  0  0  0  0
 30 31  1  0  0  0  0
 30 47  1  0  0  0  0
 31 32  2  0  0  0  0
 31 48  1  0  0  0  0
 32 49  1  0  0  0  0
 33 50  1  0  0  0  0
 33 51  1  0  0  0  0
M  END
$$$$
