Title Card Required
 OpenBabel03192317533D

 56 61  0  0  0  0  0  0  0  0999 V2000
    2.0706   -2.2510   -1.1650 C   0  0  0  0  0  0  0  0  0  0  0  0
    0.8066   -1.5942   -1.1707 C   0  0  0  0  0  0  0  0  0  0  0  0
    0.6495   -0.3648   -0.4597 C   0  0  0  0  0  0  0  0  0  0  0  0
    1.7236    0.1678    0.2306 C   0  0  0  0  0  0  0  0  0  0  0  0
    2.9949   -0.4920    0.2526 C   0  0  0  0  0  0  0  0  0  0  0  0
    3.1434   -1.6687   -0.4454 C   0  0  0  0  0  0  0  0  0  0  0  0
   -0.6493    0.3652   -0.4594 C   0  0  0  0  0  0  0  0  0  0  0  0
   -0.8066    1.5950   -1.1698 C   0  0  0  0  0  0  0  0  0  0  0  0
   -2.0708    2.2515   -1.1638 C   0  0  0  0  0  0  0  0  0  0  0  0
   -3.1434    1.6687   -0.4444 C   0  0  0  0  0  0  0  0  0  0  0  0
   -2.9947    0.4918    0.2532 C   0  0  0  0  0  0  0  0  0  0  0  0
   -1.7233   -0.1679    0.2306 C   0  0  0  0  0  0  0  0  0  0  0  0
    1.5428    1.3452    0.8714 O   0  0  0  0  0  0  0  0  0  0  0  0
   -1.5421   -1.3455    0.8708 O   0  0  0  0  0  0  0  0  0  0  0  0
    2.2304   -3.4733   -1.8728 C   0  0  0  0  0  0  0  0  0  0  0  0
    1.1836   -4.0240   -2.5685 C   0  0  0  0  0  0  0  0  0  0  0  0
   -0.0716   -3.3671   -2.5863 C   0  0  0  0  0  0  0  0  0  0  0  0
   -0.2567   -2.1869   -1.9077 C   0  0  0  0  0  0  0  0  0  0  0  0
    0.2565    2.1883   -1.9067 C   0  0  0  0  0  0  0  0  0  0  0  0
    0.0711    3.3687   -2.5847 C   0  0  0  0  0  0  0  0  0  0  0  0
   -1.1843    4.0253   -2.5667 C   0  0  0  0  0  0  0  0  0  0  0  0
   -2.2309    3.4741   -1.8711 C   0  0  0  0  0  0  0  0  0  0  0  0
    4.1343    0.0879    1.0134 C   0  0  0  0  0  0  0  0  0  0  0  0
   -4.1340   -0.0886    1.0135 C   0  0  0  0  0  0  0  0  0  0  0  0
    3.9901    0.4677    2.3576 C   0  0  0  0  0  0  0  0  0  0  0  0
    5.0702    0.9876    3.0692 C   0  0  0  0  0  0  0  0  0  0  0  0
    6.3120    1.1323    2.4522 C   0  0  0  0  0  0  0  0  0  0  0  0
    6.4680    0.7547    1.1188 C   0  0  0  0  0  0  0  0  0  0  0  0
    5.3884    0.2405    0.4049 C   0  0  0  0  0  0  0  0  0  0  0  0
   -5.3883   -0.2404    0.4051 C   0  0  0  0  0  0  0  0  0  0  0  0
   -6.4679   -0.7549    1.1186 C   0  0  0  0  0  0  0  0  0  0  0  0
   -6.3119   -1.1337    2.4518 C   0  0  0  0  0  0  0  0  0  0  0  0
   -5.0701   -0.9896    3.0688 C   0  0  0  0  0  0  0  0  0  0  0  0
   -3.9899   -0.4694    2.3576 C   0  0  0  0  0  0  0  0  0  0  0  0
    4.1072   -2.1833   -0.4238 H   0  0  0  0  0  0  0  0  0  0  0  0
   -4.1073    2.1832   -0.4225 H   0  0  0  0  0  0  0  0  0  0  0  0
    2.3948    1.6967    1.1597 H   0  0  0  0  0  0  0  0  0  0  0  0
   -2.3942   -1.6981    1.1576 H   0  0  0  0  0  0  0  0  0  0  0  0
    3.2053   -3.9653   -1.8512 H   0  0  0  0  0  0  0  0  0  0  0  0
    1.3140   -4.9631   -3.1080 H   0  0  0  0  0  0  0  0  0  0  0  0
   -0.8997   -3.8046   -3.1464 H   0  0  0  0  0  0  0  0  0  0  0  0
   -1.2246   -1.6850   -1.9304 H   0  0  0  0  0  0  0  0  0  0  0  0
    1.2245    1.6866   -1.9296 H   0  0  0  0  0  0  0  0  0  0  0  0
    0.8991    3.8067   -3.1447 H   0  0  0  0  0  0  0  0  0  0  0  0
   -1.3149    4.9646   -3.1057 H   0  0  0  0  0  0  0  0  0  0  0  0
   -3.2059    3.9659   -1.8492 H   0  0  0  0  0  0  0  0  0  0  0  0
    3.0251    0.3328    2.8518 H   0  0  0  0  0  0  0  0  0  0  0  0
    4.9421    1.2699    4.1153 H   0  0  0  0  0  0  0  0  0  0  0  0
    7.1571    1.5389    3.0096 H   0  0  0  0  0  0  0  0  0  0  0  0
    7.4362    0.8689    0.6287 H   0  0  0  0  0  0  0  0  0  0  0  0
    5.5061   -0.0395   -0.6438 H   0  0  0  0  0  0  0  0  0  0  0  0
   -5.5060    0.0404   -0.6434 H   0  0  0  0  0  0  0  0  0  0  0  0
   -7.4362   -0.8686    0.6285 H   0  0  0  0  0  0  0  0  0  0  0  0
   -7.1571   -1.5405    3.0088 H   0  0  0  0  0  0  0  0  0  0  0  0
   -4.9419   -1.2728    4.1146 H   0  0  0  0  0  0  0  0  0  0  0  0
   -3.0249   -0.3351    2.8518 H   0  0  0  0  0  0  0  0  0  0  0  0
  1  2  1  0  0  0  0
  1  6  2  0  0  0  0
  1 15  1  0  0  0  0
  2  3  2  0  0  0  0
  2 18  1  0  0  0  0
  3  4  1  0  0  0  0
  3  7  1  0  0  0  0
  4  5  2  0  0  0  0
  4 13  1  0  0  0  0
  5  6  1  0  0  0  0
  5 23  1  0  0  0  0
  6 35  1  0  0  0  0
  7  8  2  0  0  0  0
  7 12  1  0  0  0  0
  8  9  1  0  0  0  0
  8 19  1  0  0  0  0
  9 10  2  0  0  0  0
  9 22  1  0  0  0  0
 10 11  1  0  0  0  0
 10 36  1  0  0  0  0
 11 12  2  0  0  0  0
 11 24  1  0  0  0  0
 12 14  1  0  0  0  0
 13 37  1  0  0  0  0
 14 38  1  0  0  0  0
 15 16  2  0  0  0  0
 15 39  1  0  0  0  0
 16 17  1  0  0  0  0
 16 40  1  0  0  0  0
 17 18  2  0  0  0  0
 17 41  1  0  0  0  0
 18 42  1  0  0  0  0
 19 20  2  0  0  0  0
 19 43  1  0  0  0  0
 20 21  1  0  0  0  0
 20 44  1  0  0  0  0
 21 22  2  0  0  0  0
 21 45  1  0  0  0  0
 22 46  1  0  0  0  0
 23 25  2  0  0  0  0
 23 29  1  0  0  0  0
 24 30  2  0  0  0  0
 24 34  1  0  0  0  0
 25 26  1  0  0  0  0
 25 47  1  0  0  0  0
 26 27  2  0  0  0  0
 26 48  1  0  0  0  0
 27 28  1  0  0  0  0
 27 49  1  0  0  0  0
 28 29  2  0  0  0  0
 28 50  1  0  0  0  0
 29 51  1  0  0  0  0
 30 31  1  0  0  0  0
 30 52  1  0  0  0  0
 31 32  2  0  0  0  0
 31 53  1  0  0  0  0
 32 33  1  0  0  0  0
 32 54  1  0  0  0  0
 33 34  2  0  0  0  0
 33 55  1  0  0  0  0
 34 56  1  0  0  0  0
M  END
$$$$
