Title Card Required
 OpenBabel03192317483D

 90101  0  0  1  0  0  0  0  0999 V2000
   -0.8311   -0.4745   -2.0214 O   0  0  0  0  0  0  0  0  0  0  0  0
    0.3907   -1.5002   -2.3449 P   0  0  1  0  0  0  0  0  0  0  0  0
    1.5343   -1.0157   -1.2808 O   0  0  0  0  0  0  0  0  0  0  0  0
    1.2133   -0.8675    0.0555 C   0  0  0  0  0  0  0  0  0  0  0  0
   -0.1616   -0.7784    0.3604 C   0  0  0  0  0  3  0  0  0  0  0  0
    0.0085    1.4230   -0.7718 C   0  0  0  0  0  2  0  0  0  0  0  0
   -0.8166    0.1452   -0.7537 C   0  0  1  0  0  3  0  0  0  0  0  0
    2.2118   -0.5434    0.9675 C   0  0  0  0  0  0  0  0  0  0  0  0
    1.7606    0.1081    2.1383 C   0  0  0  0  0  0  0  0  0  0  0  0
    0.4135    0.0886    2.4724 C   0  0  0  0  0  0  0  0  0  0  0  0
   -0.4187    1.0834    3.2564 C   0  0  0  0  0  0  0  0  0  0  0  0
   -1.0293    0.5108    4.5143 C   0  0  0  0  0  0  0  0  0  0  0  0
   -1.5950   -0.8600    3.9932 C   0  0  0  0  0  0  0  0  0  0  0  0
   -1.8233   -0.9273    2.4499 C   0  0  0  0  0  0  0  0  0  0  0  0
   -0.5215   -0.6265    1.7121 C   0  0  0  0  0  0  0  0  0  0  0  0
   -2.1655    0.8160   -0.3284 C   0  0  0  0  0  0  0  0  0  0  0  0
   -1.9618    2.0510    0.2207 C   0  0  0  0  0  0  0  0  0  0  0  0
   -0.5392    2.5009    0.1130 C   0  0  2  0  0  3  0  0  0  0  0  0
    0.2309    3.5838    0.8856 C   0  0  0  0  0  0  0  0  0  0  0  0
   -0.1570    4.9707    0.3124 C   0  0  0  0  0  0  0  0  0  0  0  0
   -0.5187    4.9718   -1.1917 C   0  0  0  0  0  0  0  0  0  0  0  0
    0.1711    3.8863   -2.0417 C   0  0  0  0  0  0  0  0  0  0  0  0
   -0.0229    2.5773   -1.3739 C   0  0  1  0  0  3  0  0  0  0  0  0
   -4.3430   -3.5763   -0.3697 C   0  0  0  0  0  0  0  0  0  0  0  0
   -5.4288   -4.3985   -0.1542 C   0  0  0  0  0  0  0  0  0  0  0  0
   -6.6933   -3.8298    0.0860 C   0  0  0  0  0  0  0  0  0  0  0  0
   -6.8555   -2.4574    0.0867 C   0  0  0  0  0  0  0  0  0  0  0  0
   -5.7640   -1.5923   -0.1475 C   0  0  0  0  0  0  0  0  0  0  0  0
   -5.8896   -0.1426   -0.2215 C   0  0  0  0  0  0  0  0  0  0  0  0
   -7.1559    0.4843   -0.1894 C   0  0  0  0  0  0  0  0  0  0  0  0
   -7.2952    1.8470   -0.3546 C   0  0  0  0  0  0  0  0  0  0  0  0
   -6.1593    2.6371   -0.5894 C   0  0  0  0  0  0  0  0  0  0  0  0
   -4.9087    2.0536   -0.6061 C   0  0  0  0  0  0  0  0  0  0  0  0
   -4.7320    0.6664   -0.3895 C   0  0  0  0  0  0  0  0  0  0  0  0
   -3.4113    0.0421   -0.4161 C   0  0  0  0  0  0  0  0  0  0  0  0
   -3.3416   -1.3241   -0.4889 C   0  0  0  0  0  0  0  0  0  0  0  0
   -4.4881   -2.1692   -0.3558 C   0  0  0  0  0  0  0  0  0  0  0  0
    6.3152   -3.2381    0.4198 C   0  0  0  0  0  0  0  0  0  0  0  0
    7.6591   -3.3756    0.1433 C   0  0  0  0  0  0  0  0  0  0  0  0
    8.4156   -2.2402   -0.2038 C   0  0  0  0  0  0  0  0  0  0  0  0
    7.8199   -0.9953   -0.2666 C   0  0  0  0  0  0  0  0  0  0  0  0
    6.4448   -0.8262    0.0120 C   0  0  0  0  0  0  0  0  0  0  0  0
    5.7750    0.4653   -0.0610 C   0  0  0  0  0  0  0  0  0  0  0  0
    6.4615    1.6503   -0.4118 C   0  0  0  0  0  0  0  0  0  0  0  0
    5.8050    2.8605   -0.5180 C   0  0  0  0  0  0  0  0  0  0  0  0
    4.4199    2.9336   -0.2873 C   0  0  0  0  0  0  0  0  0  0  0  0
    3.7266    1.7958    0.0709 C   0  0  0  0  0  0  0  0  0  0  0  0
    4.3851    0.5520    0.2111 C   0  0  0  0  0  0  0  0  0  0  0  0
    3.6531   -0.6344    0.6071 C   0  0  0  0  0  0  0  0  0  0  0  0
    4.2893   -1.8377    0.6562 C   0  0  0  0  0  0  0  0  0  0  0  0
    5.6875   -1.9724    0.3586 C   0  0  0  0  0  0  0  0  0  0  0  0
   -0.0964   -2.9109   -1.7573 O   0  0  0  0  0  0  0  0  0  0  0  0
    0.8165   -1.5349   -3.7349 O   0  0  0  0  0  0  0  0  0  0  0  0
    2.4791    0.6694    2.7414 H   0  0  0  0  0  0  0  0  0  0  0  0
   -0.1849    2.0450    2.7978 H   0  0  0  0  0  0  0  0  0  0  0  0
   -1.3390    1.1127    2.6411 H   0  0  0  0  0  0  0  0  0  0  0  0
   -1.8354    1.1588    4.8881 H   0  0  0  0  0  0  0  0  0  0  0  0
   -0.3174    0.3463    5.3356 H   0  0  0  0  0  0  0  0  0  0  0  0
   -2.5334   -1.1085    4.5074 H   0  0  0  0  0  0  0  0  0  0  0  0
   -0.8756   -1.6524    4.2473 H   0  0  0  0  0  0  0  0  0  0  0  0
   -2.6577   -0.2782    2.1418 H   0  0  0  0  0  0  0  0  0  0  0  0
   -2.1319   -1.9489    2.1773 H   0  0  0  0  0  0  0  0  0  0  0  0
   -2.7487    2.5997    0.7427 H   0  0  0  0  0  0  0  0  0  0  0  0
    1.2890    3.3906    0.6500 H   0  0  0  0  0  0  0  0  0  0  0  0
    0.2085    3.6631    2.0259 H   0  0  0  0  0  0  0  0  0  0  0  0
    0.6601    5.6821    0.5093 H   0  0  0  0  0  0  0  0  0  0  0  0
   -1.0259    5.3565    0.8671 H   0  0  0  0  0  0  0  0  0  0  0  0
   -0.2999    5.9570   -1.6280 H   0  0  0  0  0  0  0  0  0  0  0  0
   -1.6031    4.8195   -1.3010 H   0  0  0  0  0  0  0  0  0  0  0  0
    1.2586    4.0614   -2.1073 H   0  0  0  0  0  0  0  0  0  0  0  0
   -0.2059    3.9025   -3.0763 H   0  0  0  0  0  0  0  0  0  0  0  0
   -3.3528   -3.9994   -0.5538 H   0  0  0  0  0  0  0  0  0  0  0  0
   -5.3087   -5.4826   -0.1652 H   0  0  0  0  0  0  0  0  0  0  0  0
   -7.5530   -4.4752    0.2703 H   0  0  0  0  0  0  0  0  0  0  0  0
   -7.8480   -2.0481    0.2732 H   0  0  0  0  0  0  0  0  0  0  0  0
   -8.0524   -0.1207   -0.0601 H   0  0  0  0  0  0  0  0  0  0  0  0
   -8.2875    2.2997   -0.3355 H   0  0  0  0  0  0  0  0  0  0  0  0
   -6.2630    3.7067   -0.7771 H   0  0  0  0  0  0  0  0  0  0  0  0
   -4.0423    2.6681   -0.8394 H   0  0  0  0  0  0  0  0  0  0  0  0
   -2.3767   -1.8164   -0.6048 H   0  0  0  0  0  0  0  0  0  0  0  0
    5.7139   -4.1083    0.6919 H   0  0  0  0  0  0  0  0  0  0  0  0
    8.1340   -4.3568    0.1916 H   0  0  0  0  0  0  0  0  0  0  0  0
    9.4786   -2.3422   -0.4268 H   0  0  0  0  0  0  0  0  0  0  0  0
    8.4306   -0.1363   -0.5439 H   0  0  0  0  0  0  0  0  0  0  0  0
    7.5323    1.6169   -0.6089 H   0  0  0  0  0  0  0  0  0  0  0  0
    6.3625    3.7579   -0.7912 H   0  0  0  0  0  0  0  0  0  0  0  0
    3.8959    3.8857   -0.3957 H   0  0  0  0  0  0  0  0  0  0  0  0
    2.6487    1.8322    0.2333 H   0  0  0  0  0  0  0  0  0  0  0  0
    3.7322   -2.7320    0.9454 H   0  0  0  0  0  0  0  0  0  0  0  0
   -0.2477   -2.8863   -0.7993 H   0  0  0  0  0  0  0  0  0  0  0  0
  1  2  1  0  0  0  0
  1  7  1  0  0  0  0
  2  3  1  0  0  0  0
  2 52  1  0  0  0  0
  2 53  2  6  0  0  0
  3  4  1  0  0  0  0
  4  5  2  0  0  0  0
  4  8  1  0  0  0  0
  5 15  1  0  0  0  0
  7  6  1  6  0  0  0
  7 16  1  0  0  0  0
  8  9  2  0  0  0  0
  8 49  1  0  0  0  0
  9 10  1  0  0  0  0
  9 54  1  0  0  0  0
 10 11  1  0  0  0  0
 10 15  2  0  0  0  0
 11 12  1  0  0  0  0
 11 55  1  0  0  0  0
 11 56  1  0  0  0  0
 12 13  1  0  0  0  0
 12 57  1  0  0  0  0
 12 58  1  0  0  0  0
 13 14  1  0  0  0  0
 13 59  1  0  0  0  0
 13 60  1  0  0  0  0
 14 15  1  0  0  0  0
 14 61  1  0  0  0  0
 14 62  1  0  0  0  0
 16 17  2  0  0  0  0
 16 35  1  0  0  0  0
 17 63  1  0  0  0  0
 18 17  1  6  0  0  0
 18 19  1  0  0  0  0
 18 23  1  0  0  0  0
 19 20  1  0  0  0  0
 19 55  1  0  0  0  0
 19 64  1  0  0  0  0
 19 65  1  0  0  0  0
 20 21  1  0  0  0  0
 20 66  1  0  0  0  0
 20 67  1  0  0  0  0
 21 22  1  0  0  0  0
 21 68  1  0  0  0  0
 21 69  1  0  0  0  0
 22 23  1  0  0  0  0
 22 70  1  0  0  0  0
 22 71  1  0  0  0  0
 23  6  1  1  0  0  0
 24 25  2  0  0  0  0
 24 37  1  0  0  0  0
 24 72  1  0  0  0  0
 25 26  1  0  0  0  0
 25 73  1  0  0  0  0
 26 27  2  0  0  0  0
 26 74  1  0  0  0  0
 27 28  1  0  0  0  0
 27 75  1  0  0  0  0
 28 29  2  0  0  0  0
 28 37  1  0  0  0  0
 29 30  1  0  0  0  0
 29 34  1  0  0  0  0
 30 31  2  0  0  0  0
 30 76  1  0  0  0  0
 31 32  1  0  0  0  0
 31 77  1  0  0  0  0
 32 33  2  0  0  0  0
 32 78  1  0  0  0  0
 33 34  1  0  0  0  0
 33 79  1  0  0  0  0
 34 35  2  0  0  0  0
 35 36  1  0  0  0  0
 36 37  2  0  0  0  0
 36 80  1  0  0  0  0
 38 39  2  0  0  0  0
 38 51  1  0  0  0  0
 38 81  1  0  0  0  0
 39 40  1  0  0  0  0
 39 82  1  0  0  0  0
 40 41  2  0  0  0  0
 40 83  1  0  0  0  0
 41 42  1  0  0  0  0
 41 84  1  0  0  0  0
 42 43  2  0  0  0  0
 42 51  1  0  0  0  0
 43 44  1  0  0  0  0
 43 48  1  0  0  0  0
 44 45  2  0  0  0  0
 44 85  1  0  0  0  0
 45 46  1  0  0  0  0
 45 86  1  0  0  0  0
 46 47  2  0  0  0  0
 46 87  1  0  0  0  0
 47 48  1  0  0  0  0
 47 88  1  0  0  0  0
 48 49  2  0  0  0  0
 49 50  1  0  0  0  0
 50 51  2  0  0  0  0
 50 89  1  0  0  0  0
 52 90  1  0  0  0  0
 55 65  1  0  0  0  0
M  END
$$$$
