Title Card Required
 OpenBabel03192317533D

124131  0  0  1  0  0  0  0  0999 V2000
   -0.3264   -0.8584   -4.1219 C   0  0  0  0  0  0  0  0  0  0  0  0
    0.5614   -1.9824   -4.5915 C   0  0  0  0  0  0  0  0  0  0  0  0
    0.6797   -2.8867   -3.3559 C   0  0  0  0  0  0  0  0  0  0  0  0
   -0.5828   -2.6078   -2.4848 C   0  0  1  0  0  0  0  0  0  0  0  0
   -0.9983   -1.2028   -2.9360 C   0  0  0  0  0  0  0  0  0  0  0  0
   -1.6834   -3.6884   -2.7488 C   0  0  0  0  0  0  0  0  0  0  0  0
   -1.7509   -4.5749   -1.4867 C   0  0  0  0  0  0  0  0  0  0  0  0
   -0.9946   -3.8012   -0.4362 C   0  0  0  0  0  0  0  0  0  0  0  0
   -0.3229   -2.7098   -0.9918 C   0  0  0  0  0  0  0  0  0  0  0  0
   -1.8856   -0.2663   -2.3485 C   0  0  0  0  0  0  0  0  0  0  0  0
   -2.0397    0.9887   -2.9551 C   0  0  0  0  0  0  0  0  0  0  0  0
   -1.3769    1.3029   -4.1342 C   0  0  0  0  0  0  0  0  0  0  0  0
   -0.5198    0.3788   -4.7266 C   0  0  0  0  0  0  0  0  0  0  0  0
   -0.9076   -4.0666    0.9277 C   0  0  0  0  0  0  0  0  0  0  0  0
   -0.1475   -3.2168    1.7339 C   0  0  0  0  0  0  0  0  0  0  0  0
    0.5364   -2.1395    1.1702 C   0  0  0  0  0  0  0  0  0  0  0  0
    0.4681   -1.8725   -0.2075 C   0  0  0  0  0  0  0  0  0  0  0  0
   -2.6875   -0.4895   -1.1202 C   0  0  0  0  0  0  0  0  0  0  0  0
    1.4991   -0.5683   -1.0316 P   0  0  0  0  0  0  0  0  0  0  0  0
   -2.9297    0.3908   -0.2364 N   0  0  0  0  0  0  0  0  0  0  0  0
   -3.8681   -0.1983    0.7146 C   0  0  2  0  0  0  0  0  0  0  0  0
   -3.9474   -1.6814    0.2905 C   0  0  0  0  0  0  0  0  0  0  0  0
   -3.2803   -1.7007   -0.9749 O   0  0  0  0  0  0  0  0  0  0  0  0
    0.6699    1.0165   -0.6051 C   0  0  0  0  0  0  0  0  0  0  0  0
    2.9634   -0.5428    0.0974 C   0  0  0  0  0  0  0  0  0  0  0  0
    0.0905    1.2868    0.6285 C   0  0  0  0  0  0  0  0  0  0  0  0
   -0.3831    2.5656    0.9395 C   0  0  0  0  0  0  0  0  0  0  0  0
   -0.2671    3.5592   -0.0375 C   0  0  0  0  0  0  0  0  0  0  0  0
    0.3018    3.3173   -1.2991 C   0  0  0  0  0  0  0  0  0  0  0  0
    0.7663    2.0290   -1.5677 C   0  0  0  0  0  0  0  0  0  0  0  0
    3.6283   -1.7441    0.3708 C   0  0  0  0  0  0  0  0  0  0  0  0
    4.7911   -1.7761    1.1434 C   0  0  0  0  0  0  0  0  0  0  0  0
    5.3041   -0.5605    1.6171 C   0  0  0  0  0  0  0  0  0  0  0  0
    4.6810    0.6606    1.3414 C   0  0  0  0  0  0  0  0  0  0  0  0
    3.5036    0.6502    0.5820 C   0  0  0  0  0  0  0  0  0  0  0  0
    5.4431   -3.1279    1.4562 C   0  0  0  0  0  0  0  0  0  0  0  0
    5.8068   -3.8387    0.1426 C   0  0  0  0  0  0  0  0  0  0  0  0
    6.7186   -2.9749    2.2893 C   0  0  0  0  0  0  0  0  0  0  0  0
    4.4450   -3.9906    2.2467 C   0  0  0  0  0  0  0  0  0  0  0  0
    5.2315    2.0026    1.8365 C   0  0  0  0  0  0  0  0  0  0  0  0
    5.5799    2.8810    0.6236 C   0  0  0  0  0  0  0  0  0  0  0  0
    4.1606    2.7095    2.6823 C   0  0  0  0  0  0  0  0  0  0  0  0
    6.4905    1.8307    2.6901 C   0  0  0  0  0  0  0  0  0  0  0  0
   -0.9736    2.8256    2.3292 C   0  0  0  0  0  0  0  0  0  0  0  0
    0.1225    2.6230    3.3882 C   0  0  0  0  0  0  0  0  0  0  0  0
   -1.5220    4.2483    2.4696 C   0  0  0  0  0  0  0  0  0  0  0  0
   -2.1230    1.8350    2.5821 C   0  0  0  0  0  0  0  0  0  0  0  0
    0.3901    4.4555   -2.3202 C   0  0  0  0  0  0  0  0  0  0  0  0
    1.1820    5.6272   -1.7180 C   0  0  0  0  0  0  0  0  0  0  0  0
    1.0908    4.0123   -3.6074 C   0  0  0  0  0  0  0  0  0  0  0  0
   -1.0303    4.9245   -2.6734 C   0  0  0  0  0  0  0  0  0  0  0  0
   -5.2125    0.5411    0.6557 C   0  0  0  0  0  0  0  0  0  0  0  0
   -6.1859    0.0462    1.6952 C   0  0  0  0  0  0  0  0  0  0  0  0
   -5.9921    0.3576    3.0477 C   0  0  0  0  0  0  0  0  0  0  0  0
   -6.8565   -0.1299    4.0246 C   0  0  0  0  0  0  0  0  0  0  0  0
   -7.9337   -0.9408    3.6649 C   0  0  0  0  0  0  0  0  0  0  0  0
   -8.1392   -1.2562    2.3238 C   0  0  0  0  0  0  0  0  0  0  0  0
   -7.2705   -0.7654    1.3486 C   0  0  0  0  0  0  0  0  0  0  0  0
    0.0843   -2.5068   -5.4363 H   0  0  0  0  0  0  0  0  0  0  0  0
    1.5385   -1.6217   -4.9434 H   0  0  0  0  0  0  0  0  0  0  0  0
    0.7488   -3.9540   -3.6076 H   0  0  0  0  0  0  0  0  0  0  0  0
    1.5847   -2.6165   -2.7987 H   0  0  0  0  0  0  0  0  0  0  0  0
   -2.6494   -3.2061   -2.9179 H   0  0  0  0  0  0  0  0  0  0  0  0
   -1.4401   -4.2682   -3.6504 H   0  0  0  0  0  0  0  0  0  0  0  0
   -2.7889   -4.7711   -1.1764 H   0  0  0  0  0  0  0  0  0  0  0  0
   -1.2748   -5.5561   -1.6457 H   0  0  0  0  0  0  0  0  0  0  0  0
   -2.6982    1.7133   -2.4740 H   0  0  0  0  0  0  0  0  0  0  0  0
   -1.5287    2.2798   -4.5967 H   0  0  0  0  0  0  0  0  0  0  0  0
    0.0059    0.6275   -5.6511 H   0  0  0  0  0  0  0  0  0  0  0  0
   -1.4288   -4.9237    1.3608 H   0  0  0  0  0  0  0  0  0  0  0  0
   -0.0730   -3.4013    2.8071 H   0  0  0  0  0  0  0  0  0  0  0  0
    1.1657   -1.5133    1.8068 H   0  0  0  0  0  0  0  0  0  0  0  0
   -3.4656   -0.1047    1.7353 H   0  0  0  0  0  0  0  0  0  0  0  0
   -3.4084   -2.3508    0.9770 H   0  0  0  0  0  0  0  0  0  0  0  0
   -4.9756   -2.0460    0.1555 H   0  0  0  0  0  0  0  0  0  0  0  0
    0.0169    0.4850    1.3673 H   0  0  0  0  0  0  0  0  0  0  0  0
   -0.6316    4.5631    0.1803 H   0  0  0  0  0  0  0  0  0  0  0  0
    1.2134    1.7844   -2.5327 H   0  0  0  0  0  0  0  0  0  0  0  0
    3.2097   -2.6796   -0.0118 H   0  0  0  0  0  0  0  0  0  0  0  0
    6.2111   -0.5681    2.2169 H   0  0  0  0  0  0  0  0  0  0  0  0
    2.9954    1.5918    0.3652 H   0  0  0  0  0  0  0  0  0  0  0  0
    6.5093   -3.2309   -0.4467 H   0  0  0  0  0  0  0  0  0  0  0  0
    6.2814   -4.8094    0.3547 H   0  0  0  0  0  0  0  0  0  0  0  0
    4.9184   -4.0265   -0.4768 H   0  0  0  0  0  0  0  0  0  0  0  0
    6.5146   -2.4986    3.2595 H   0  0  0  0  0  0  0  0  0  0  0  0
    7.1511   -3.9669    2.4863 H   0  0  0  0  0  0  0  0  0  0  0  0
    7.4761   -2.3762    1.7619 H   0  0  0  0  0  0  0  0  0  0  0  0
    4.1799   -3.5023    3.1966 H   0  0  0  0  0  0  0  0  0  0  0  0
    3.5160   -4.1542    1.6814 H   0  0  0  0  0  0  0  0  0  0  0  0
    4.8850   -4.9743    2.4736 H   0  0  0  0  0  0  0  0  0  0  0  0
    4.6940    3.0726    0.0009 H   0  0  0  0  0  0  0  0  0  0  0  0
    5.9775    3.8517    0.9587 H   0  0  0  0  0  0  0  0  0  0  0  0
    6.3389    2.3927   -0.0053 H   0  0  0  0  0  0  0  0  0  0  0  0
    3.8778    2.0929    3.5490 H   0  0  0  0  0  0  0  0  0  0  0  0
    4.5419    3.6741    3.0525 H   0  0  0  0  0  0  0  0  0  0  0  0
    3.2512    2.9066    2.0964 H   0  0  0  0  0  0  0  0  0  0  0  0
    6.2941    1.2154    3.5807 H   0  0  0  0  0  0  0  0  0  0  0  0
    7.3058    1.3625    2.1190 H   0  0  0  0  0  0  0  0  0  0  0  0
    6.8419    2.8154    3.0321 H   0  0  0  0  0  0  0  0  0  0  0  0
    0.9313    3.3566    3.2559 H   0  0  0  0  0  0  0  0  0  0  0  0
   -0.2958    2.7496    4.3990 H   0  0  0  0  0  0  0  0  0  0  0  0
    0.5647    1.6178    3.3231 H   0  0  0  0  0  0  0  0  0  0  0  0
   -2.3130    4.4492    1.7319 H   0  0  0  0  0  0  0  0  0  0  0  0
   -1.9537    4.3794    3.4728 H   0  0  0  0  0  0  0  0  0  0  0  0
   -0.7313    5.0029    2.3460 H   0  0  0  0  0  0  0  0  0  0  0  0
   -2.9034    1.9482    1.8146 H   0  0  0  0  0  0  0  0  0  0  0  0
   -1.7704    0.7940    2.5458 H   0  0  0  0  0  0  0  0  0  0  0  0
   -2.5649    2.0122    3.5749 H   0  0  0  0  0  0  0  0  0  0  0  0
    2.2001    5.3097   -1.4467 H   0  0  0  0  0  0  0  0  0  0  0  0
    1.2591    6.4491   -2.4467 H   0  0  0  0  0  0  0  0  0  0  0  0
    0.6984    6.0241   -0.8140 H   0  0  0  0  0  0  0  0  0  0  0  0
    0.5563    3.1811   -4.0915 H   0  0  0  0  0  0  0  0  0  0  0  0
    1.1281    4.8528   -4.3160 H   0  0  0  0  0  0  0  0  0  0  0  0
    2.1237    3.6884   -3.4117 H   0  0  0  0  0  0  0  0  0  0  0  0
   -1.6169    4.0946   -3.0953 H   0  0  0  0  0  0  0  0  0  0  0  0
   -1.5636    5.2974   -1.7869 H   0  0  0  0  0  0  0  0  0  0  0  0
   -0.9918    5.7378   -3.4149 H   0  0  0  0  0  0  0  0  0  0  0  0
   -5.0093    1.6133    0.7954 H   0  0  0  0  0  0  0  0  0  0  0  0
   -5.6349    0.4194   -0.3544 H   0  0  0  0  0  0  0  0  0  0  0  0
   -5.1523    0.9967    3.3341 H   0  0  0  0  0  0  0  0  0  0  0  0
   -6.6921    0.1267    5.0725 H   0  0  0  0  0  0  0  0  0  0  0  0
   -8.6131   -1.3212    4.4291 H   0  0  0  0  0  0  0  0  0  0  0  0
   -8.9826   -1.8843    2.0320 H   0  0  0  0  0  0  0  0  0  0  0  0
   -7.4422   -1.0082    0.2969 H   0  0  0  0  0  0  0  0  0  0  0  0
  1  2  1  0  0  0  0
  1  5  2  0  0  0  0
  1 13  1  0  0  0  0
  2  3  1  0  0  0  0
  2 59  1  0  0  0  0
  2 60  1  0  0  0  0
  3  4  1  0  0  0  0
  3 61  1  0  0  0  0
  3 62  1  0  0  0  0
  4  5  1  6  0  0  0
  4  6  1  0  0  0  0
  4  9  1  0  0  0  0
  5 10  1  0  0  0  0
  6  7  1  0  0  0  0
  6 63  1  0  0  0  0
  6 64  1  0  0  0  0
  7  8  1  0  0  0  0
  7 65  1  0  0  0  0
  7 66  1  0  0  0  0
  8  9  2  0  0  0  0
  8 14  1  0  0  0  0
  9 17  1  0  0  0  0
 10 11  2  0  0  0  0
 10 18  1  0  0  0  0
 11 12  1  0  0  0  0
 11 67  1  0  0  0  0
 12 13  2  0  0  0  0
 12 68  1  0  0  0  0
 13 69  1  0  0  0  0
 14 15  2  0  0  0  0
 14 70  1  0  0  0  0
 15 16  1  0  0  0  0
 15 71  1  0  0  0  0
 16 17  2  0  0  0  0
 16 72  1  0  0  0  0
 17 19  1  0  0  0  0
 18 20  2  0  0  0  0
 18 23  1  0  0  0  0
 19 24  1  0  0  0  0
 19 25  1  0  0  0  0
 20 21  1  0  0  0  0
 21 22  1  0  0  0  0
 21 52  1  0  0  0  0
 21 73  1  1  0  0  0
 22 23  1  0  0  0  0
 22 74  1  0  0  0  0
 22 75  1  0  0  0  0
 24 26  2  0  0  0  0
 24 30  1  0  0  0  0
 25 31  2  0  0  0  0
 25 35  1  0  0  0  0
 26 27  1  0  0  0  0
 26 76  1  0  0  0  0
 27 28  2  0  0  0  0
 27 44  1  0  0  0  0
 28 29  1  0  0  0  0
 28 77  1  0  0  0  0
 29 30  2  0  0  0  0
 29 48  1  0  0  0  0
 30 78  1  0  0  0  0
 31 32  1  0  0  0  0
 31 79  1  0  0  0  0
 32 33  2  0  0  0  0
 32 36  1  0  0  0  0
 33 34  1  0  0  0  0
 33 80  1  0  0  0  0
 34 35  2  0  0  0  0
 34 40  1  0  0  0  0
 35 81  1  0  0  0  0
 36 37  1  0  0  0  0
 36 38  1  0  0  0  0
 36 39  1  0  0  0  0
 37 82  1  0  0  0  0
 37 83  1  0  0  0  0
 37 84  1  0  0  0  0
 38 85  1  0  0  0  0
 38 86  1  0  0  0  0
 38 87  1  0  0  0  0
 39 88  1  0  0  0  0
 39 89  1  0  0  0  0
 39 90  1  0  0  0  0
 40 41  1  0  0  0  0
 40 42  1  0  0  0  0
 40 43  1  0  0  0  0
 41 91  1  0  0  0  0
 41 92  1  0  0  0  0
 41 93  1  0  0  0  0
 42 94  1  0  0  0  0
 42 95  1  0  0  0  0
 42 96  1  0  0  0  0
 43 97  1  0  0  0  0
 43 98  1  0  0  0  0
 43 99  1  0  0  0  0
 44 45  1  0  0  0  0
 44 46  1  0  0  0  0
 44 47  1  0  0  0  0
 45100  1  0  0  0  0
 45101  1  0  0  0  0
 45102  1  0  0  0  0
 46103  1  0  0  0  0
 46104  1  0  0  0  0
 46105  1  0  0  0  0
 47106  1  0  0  0  0
 47107  1  0  0  0  0
 47108  1  0  0  0  0
 48 49  1  0  0  0  0
 48 50  1  0  0  0  0
 48 51  1  0  0  0  0
 49109  1  0  0  0  0
 49110  1  0  0  0  0
 49111  1  0  0  0  0
 50112  1  0  0  0  0
 50113  1  0  0  0  0
 50114  1  0  0  0  0
 51115  1  0  0  0  0
 51116  1  0  0  0  0
 51117  1  0  0  0  0
 52 53  1  0  0  0  0
 52118  1  0  0  0  0
 52119  1  0  0  0  0
 53 54  2  0  0  0  0
 53 58  1  0  0  0  0
 54 55  1  0  0  0  0
 54120  1  0  0  0  0
 55 56  2  0  0  0  0
 55121  1  0  0  0  0
 56 57  1  0  0  0  0
 56122  1  0  0  0  0
 57 58  2  0  0  0  0
 57123  1  0  0  0  0
 58124  1  0  0  0  0
M  END
$$$$
