Title Card Required
 OpenBabel03192317563D

 47 47  0  0  1  0  0  0  0  0999 V2000
   -0.5819   -0.6773    0.2972 N   0  0  0  0  0  0  0  0  0  0  0  0
   -1.1696   -1.8667   -0.0589 C   0  0  0  0  0  0  0  0  0  0  0  0
   -0.3979   -3.1214   -0.8391 S   0  0  0  0  0  0  0  0  0  0  0  0
   -2.4825   -1.9588    0.2607 N   0  0  0  0  0  0  0  0  0  0  0  0
   -3.3026   -0.9675    0.9279 C   0  0  0  0  0  0  0  0  0  0  0  0
   -3.8157    0.1845    0.0345 C   0  0  2  0  0  0  0  0  0  0  0  0
   -3.9775    1.4828    0.8553 C   0  0  0  0  0  0  0  0  0  0  0  0
   -4.9852    1.3125    1.9906 C   0  0  0  0  0  0  0  0  0  0  0  0
   -2.6406    2.0308    1.3555 C   0  0  0  0  0  0  0  0  0  0  0  0
   -5.0652   -0.1935   -0.6198 N   0  0  0  0  0  0  0  0  0  0  0  0
   -5.5810    0.8388   -1.5006 C   0  0  0  0  0  0  0  0  0  0  0  0
   -4.9923   -1.4657   -1.3151 C   0  0  0  0  0  0  0  0  0  0  0  0
    0.7602   -0.2897    0.1459 C   0  0  0  0  0  0  0  0  0  0  0  0
    1.0234    1.0483   -0.1557 C   0  0  0  0  0  0  0  0  0  0  0  0
    2.3366    1.5050   -0.2507 C   0  0  0  0  0  0  0  0  0  0  0  0
    3.4076    0.6389   -0.0745 C   0  0  0  0  0  0  0  0  0  0  0  0
    3.1349   -0.6976    0.2180 C   0  0  0  0  0  0  0  0  0  0  0  0
    1.8337   -1.1694    0.3436 C   0  0  0  0  0  0  0  0  0  0  0  0
    4.2834   -1.6633    0.3670 C   0  0  0  0  0  0  0  0  0  0  0  0
    5.3569   -1.0637    0.8867 F   0  0  0  0  0  0  0  0  0  0  0  0
    3.9672   -2.6878    1.1579 F   0  0  0  0  0  0  0  0  0  0  0  0
    4.6483   -2.1674   -0.8120 F   0  0  0  0  0  0  0  0  0  0  0  0
    2.5685    2.9689   -0.5170 C   0  0  0  0  0  0  0  0  0  0  0  0
    1.7437    3.4265   -1.4631 F   0  0  0  0  0  0  0  0  0  0  0  0
    2.3448    3.7018    0.5768 F   0  0  0  0  0  0  0  0  0  0  0  0
    3.8161    3.2111   -0.9113 F   0  0  0  0  0  0  0  0  0  0  0  0
   -1.2014    0.0842    0.5511 H   0  0  0  0  0  0  0  0  0  0  0  0
   -2.8997   -2.8281   -0.0476 H   0  0  0  0  0  0  0  0  0  0  0  0
   -4.1701   -1.4811    1.3644 H   0  0  0  0  0  0  0  0  0  0  0  0
   -2.7347   -0.5639    1.7798 H   0  0  0  0  0  0  0  0  0  0  0  0
   -3.0330    0.3758   -0.7420 H   0  0  0  0  0  0  0  0  0  0  0  0
   -4.3669    2.2457    0.1662 H   0  0  0  0  0  0  0  0  0  0  0  0
   -4.6000    0.6325    2.7670 H   0  0  0  0  0  0  0  0  0  0  0  0
   -5.1952    2.2765    2.4754 H   0  0  0  0  0  0  0  0  0  0  0  0
   -5.9270    0.8931    1.6103 H   0  0  0  0  0  0  0  0  0  0  0  0
   -1.9344    2.1827    0.5238 H   0  0  0  0  0  0  0  0  0  0  0  0
   -2.7854    3.0099    1.8331 H   0  0  0  0  0  0  0  0  0  0  0  0
   -2.1651    1.3844    2.1109 H   0  0  0  0  0  0  0  0  0  0  0  0
   -4.8324    1.1829   -2.2468 H   0  0  0  0  0  0  0  0  0  0  0  0
   -6.4462    0.4440   -2.0486 H   0  0  0  0  0  0  0  0  0  0  0  0
   -5.9322    1.7119   -0.9360 H   0  0  0  0  0  0  0  0  0  0  0  0
   -4.1626   -1.5177   -2.0520 H   0  0  0  0  0  0  0  0  0  0  0  0
   -4.8783   -2.2990   -0.6085 H   0  0  0  0  0  0  0  0  0  0  0  0
   -5.9366   -1.6373   -1.8478 H   0  0  0  0  0  0  0  0  0  0  0  0
    0.1999    1.7431   -0.3328 H   0  0  0  0  0  0  0  0  0  0  0  0
    4.4343    0.9949   -0.1581 H   0  0  0  0  0  0  0  0  0  0  0  0
    1.6468   -2.2122    0.5897 H   0  0  0  0  0  0  0  0  0  0  0  0
  1  2  1  0  0  0  0
  1 13  1  0  0  0  0
  1 27  1  0  0  0  0
  2  3  2  0  0  0  0
  2  4  1  0  0  0  0
  4  5  1  0  0  0  0
  4 28  1  0  0  0  0
  5  6  1  0  0  0  0
  5 29  1  0  0  0  0
  5 30  1  0  0  0  0
  6  7  1  0  0  0  0
  6 10  1  0  0  0  0
  6 31  1  6  0  0  0
  7  8  1  0  0  0  0
  7  9  1  0  0  0  0
  7 32  1  0  0  0  0
  8 33  1  0  0  0  0
  8 34  1  0  0  0  0
  8 35  1  0  0  0  0
  9 36  1  0  0  0  0
  9 37  1  0  0  0  0
  9 38  1  0  0  0  0
 10 11  1  0  0  0  0
 10 12  1  0  0  0  0
 11 39  1  0  0  0  0
 11 40  1  0  0  0  0
 11 41  1  0  0  0  0
 12 42  1  0  0  0  0
 12 43  1  0  0  0  0
 12 44  1  0  0  0  0
 13 14  2  0  0  0  0
 13 18  1  0  0  0  0
 14 15  1  0  0  0  0
 14 45  1  0  0  0  0
 15 16  2  0  0  0  0
 15 23  1  0  0  0  0
 16 17  1  0  0  0  0
 16 46  1  0  0  0  0
 17 18  2  0  0  0  0
 17 19  1  0  0  0  0
 18 47  1  0  0  0  0
 19 20  1  0  0  0  0
 19 21  1  0  0  0  0
 19 22  1  0  0  0  0
 23 24  1  0  0  0  0
 23 25  1  0  0  0  0
 23 26  1  0  0  0  0
M  END
$$$$
