Title Card Required
 OpenBabel03192317413D

 71 75  0  0  1  0  0  0  0  0999 V2000
    2.3188   -0.8002    0.2996 N   0  0  0  0  0  0  0  0  0  0  0  0
    1.3976   -1.7482    0.5046 C   0  0  0  0  0  0  0  0  0  0  0  0
    1.7342   -3.3190    0.9903 S   0  0  0  0  0  0  0  0  0  0  0  0
    0.0975   -1.3513    0.2755 N   0  0  0  0  0  0  0  0  0  0  0  0
   -0.2707   -0.3875   -0.7693 C   0  0  2  0  0  0  0  0  0  0  0  0
    0.9350    1.6869   -0.0538 N   0  0  2  0  0  0  0  0  0  0  0  0
   -0.3902    1.0596   -0.2326 C   0  0  1  0  0  0  0  0  0  0  0  0
   -1.2975    2.0044   -1.0498 C   0  0  0  0  0  0  0  0  0  0  0  0
   -0.7293    3.4240   -0.9096 C   0  0  1  0  0  0  0  0  0  0  0  0
   -0.3769    3.7045    0.5738 C   0  0  2  0  0  0  0  0  0  0  0  0
    0.7957    2.7532    0.9432 C   0  0  0  0  0  0  0  0  0  0  0  0
    0.5674    3.4870   -1.7241 C   0  0  0  0  0  0  0  0  0  0  0  0
    1.4244    2.2657   -1.3127 C   0  0  0  0  0  0  0  0  0  0  0  0
   -1.6146    3.6249    1.4338 C   0  0  0  0  0  0  0  0  0  0  0  0
   -1.8738    2.8070    2.4537 C   0  0  0  0  0  0  0  0  0  0  0  0
   -3.8930   -1.6298   -2.8321 N   0  0  0  0  0  0  0  0  0  0  0  0
   -2.7441   -1.5284   -3.4414 C   0  0  0  0  0  0  0  0  0  0  0  0
   -1.5419   -1.1376   -2.7924 C   0  0  0  0  0  0  0  0  0  0  0  0
   -1.5432   -0.8506   -1.4499 C   0  0  0  0  0  0  0  0  0  0  0  0
   -2.7847   -0.9770   -0.7409 C   0  0  0  0  0  0  0  0  0  0  0  0
   -2.9309   -0.7313    0.6456 C   0  0  0  0  0  0  0  0  0  0  0  0
   -4.1648   -0.8336    1.2607 C   0  0  0  0  0  0  0  0  0  0  0  0
   -5.3091   -1.2052    0.5052 C   0  0  0  0  0  0  0  0  0  0  0  0
   -5.1826   -1.4639   -0.8381 C   0  0  0  0  0  0  0  0  0  0  0  0
   -3.9326   -1.3607   -1.4988 C   0  0  0  0  0  0  0  0  0  0  0  0
   -4.2052   -0.5668    2.5835 O   0  0  0  0  0  0  0  0  0  0  0  0
   -5.4215   -0.7062    3.2708 C   0  0  0  0  0  0  0  0  0  0  0  0
    3.7442   -1.0318    0.3095 C   0  0  1  0  0  0  0  0  0  0  0  0
    4.4280   -0.0281   -0.6249 C   0  0  1  0  0  0  0  0  0  0  0  0
    5.9393   -0.2842   -0.6351 C   0  0  0  0  0  0  0  0  0  0  0  0
    6.5453   -0.2370    0.7665 C   0  0  0  0  0  0  0  0  0  0  0  0
    5.8428   -1.2253    1.6963 C   0  0  0  0  0  0  0  0  0  0  0  0
    4.3373   -0.9751    1.7201 C   0  0  0  0  0  0  0  0  0  0  0  0
    3.8007   -0.0642   -1.9404 N   0  0  0  0  0  0  0  0  0  0  0  0
   -1.4541    4.1693   -1.2688 H   0  0  0  0  0  0  0  0  0  0  0  0
    1.9861    0.1724    0.1776 H   0  0  0  0  0  0  0  0  0  0  0  0
   -0.5447   -2.1278    0.3980 H   0  0  0  0  0  0  0  0  0  0  0  0
    0.5300   -0.3922   -1.5299 H   0  0  0  0  0  0  0  0  0  0  0  0
   -0.8069    0.9777    0.7779 H   0  0  0  0  0  0  0  0  0  0  0  0
   -1.3125    1.7229   -2.1156 H   0  0  0  0  0  0  0  0  0  0  0  0
   -2.3321    1.9359   -0.6834 H   0  0  0  0  0  0  0  0  0  0  0  0
   -0.0213    4.7477    0.6265 H   0  0  0  0  0  0  0  0  0  0  0  0
    1.7440    3.3092    0.9759 H   0  0  0  0  0  0  0  0  0  0  0  0
    0.6579    2.2989    1.9340 H   0  0  0  0  0  0  0  0  0  0  0  0
    1.0950    4.4320   -1.5204 H   0  0  0  0  0  0  0  0  0  0  0  0
    0.3464    3.4643   -2.8014 H   0  0  0  0  0  0  0  0  0  0  0  0
    2.4822    2.5361   -1.1769 H   0  0  0  0  0  0  0  0  0  0  0  0
    1.4175    1.4787   -2.0789 H   0  0  0  0  0  0  0  0  0  0  0  0
   -2.3959    4.3374    1.1405 H   0  0  0  0  0  0  0  0  0  0  0  0
   -2.8323    2.8516    2.9736 H   0  0  0  0  0  0  0  0  0  0  0  0
   -1.1598    2.0645    2.8182 H   0  0  0  0  0  0  0  0  0  0  0  0
   -2.7262   -1.7550   -4.5128 H   0  0  0  0  0  0  0  0  0  0  0  0
   -0.6193   -1.0622   -3.3710 H   0  0  0  0  0  0  0  0  0  0  0  0
   -2.0773   -0.4782    1.2727 H   0  0  0  0  0  0  0  0  0  0  0  0
   -6.2855   -1.2936    0.9793 H   0  0  0  0  0  0  0  0  0  0  0  0
   -6.0408   -1.7573   -1.4433 H   0  0  0  0  0  0  0  0  0  0  0  0
   -6.1846   -0.0064    2.8920 H   0  0  0  0  0  0  0  0  0  0  0  0
   -5.8107   -1.7353    3.2025 H   0  0  0  0  0  0  0  0  0  0  0  0
   -5.2145   -0.4735    4.3211 H   0  0  0  0  0  0  0  0  0  0  0  0
    3.9103   -2.0519   -0.0837 H   0  0  0  0  0  0  0  0  0  0  0  0
    4.2569    0.9830   -0.2032 H   0  0  0  0  0  0  0  0  0  0  0  0
    6.1143   -1.2797   -1.0822 H   0  0  0  0  0  0  0  0  0  0  0  0
    6.4268    0.4516   -1.2957 H   0  0  0  0  0  0  0  0  0  0  0  0
    7.6253   -0.4424    0.7211 H   0  0  0  0  0  0  0  0  0  0  0  0
    6.4350    0.7836    1.1730 H   0  0  0  0  0  0  0  0  0  0  0  0
    6.0296   -2.2540    1.3432 H   0  0  0  0  0  0  0  0  0  0  0  0
    6.2576   -1.1611    2.7132 H   0  0  0  0  0  0  0  0  0  0  0  0
    4.1264    0.0207    2.1490 H   0  0  0  0  0  0  0  0  0  0  0  0
    3.8157   -1.7229    2.3342 H   0  0  0  0  0  0  0  0  0  0  0  0
    4.3306    0.5111   -2.5936 H   0  0  0  0  0  0  0  0  0  0  0  0
    3.8323   -1.0174   -2.3039 H   0  0  0  0  0  0  0  0  0  0  0  0
  1  2  1  0  0  0  0
  1 28  1  0  0  0  0
  1 36  1  0  0  0  0
  2  3  2  0  0  0  0
  2  4  1  0  0  0  0
  4  5  1  0  0  0  0
  4 37  1  0  0  0  0
  5  7  1  0  0  0  0
  5 19  1  0  0  0  0
  5 38  1  6  0  0  0
  6  7  1  0  0  0  0
  6 11  1  1  0  0  0
  6 13  1  0  0  0  0
  7  8  1  0  0  0  0
  7 39  1  1  0  0  0
  8  9  1  0  0  0  0
  8 40  1  0  0  0  0
  8 41  1  0  0  0  0
  9 10  1  0  0  0  0
  9 12  1  0  0  0  0
  9 35  1  6  0  0  0
 10 11  1  0  0  0  0
 10 14  1  0  0  0  0
 10 42  1  1  0  0  0
 11 43  1  0  0  0  0
 11 44  1  0  0  0  0
 12 13  1  0  0  0  0
 12 45  1  0  0  0  0
 12 46  1  0  0  0  0
 13 47  1  0  0  0  0
 13 48  1  0  0  0  0
 14 15  2  0  0  0  0
 14 49  1  0  0  0  0
 15 50  1  0  0  0  0
 15 51  1  0  0  0  0
 16 17  2  0  0  0  0
 16 25  1  0  0  0  0
 17 18  1  0  0  0  0
 17 52  1  0  0  0  0
 18 19  2  0  0  0  0
 18 53  1  0  0  0  0
 19 20  1  0  0  0  0
 20 21  2  0  0  0  0
 20 25  1  0  0  0  0
 21 22  1  0  0  0  0
 21 54  1  0  0  0  0
 22 23  2  0  0  0  0
 22 26  1  0  0  0  0
 23 24  1  0  0  0  0
 23 55  1  0  0  0  0
 24 25  2  0  0  0  0
 24 56  1  0  0  0  0
 26 27  1  0  0  0  0
 27 57  1  0  0  0  0
 27 58  1  0  0  0  0
 27 59  1  0  0  0  0
 28 29  1  0  0  0  0
 28 33  1  0  0  0  0
 28 60  1  6  0  0  0
 29 30  1  0  0  0  0
 29 34  1  0  0  0  0
 29 61  1  1  0  0  0
 30 31  1  0  0  0  0
 30 62  1  0  0  0  0
 30 63  1  0  0  0  0
 31 32  1  0  0  0  0
 31 64  1  0  0  0  0
 31 65  1  0  0  0  0
 32 33  1  0  0  0  0
 32 66  1  0  0  0  0
 32 67  1  0  0  0  0
 33 68  1  0  0  0  0
 33 69  1  0  0  0  0
 34 70  1  0  0  0  0
 34 71  1  0  0  0  0
M  END
$$$$
