Title Card Required
 OpenBabel03192317423D

 80 89  0  0  0  0  0  0  0  0999 V2000
   -2.4070   -2.5914   -1.8762 C   0  0  0  0  0  0  0  0  0  0  0  0
   -1.1251   -2.7619   -1.2740 C   0  0  0  0  0  0  0  0  0  0  0  0
   -0.6852   -1.8291   -0.2905 C   0  0  0  0  0  0  0  0  0  0  0  0
   -1.5159   -0.7850    0.0796 C   0  0  0  0  0  0  0  0  0  0  0  0
   -2.7700   -0.5622   -0.5692 C   0  0  0  0  0  0  0  0  0  0  0  0
   -3.1927   -1.4665   -1.5168 C   0  0  0  0  0  0  0  0  0  0  0  0
   -2.8485   -3.5249   -2.8528 C   0  0  0  0  0  0  0  0  0  0  0  0
   -2.0558   -4.5823   -3.2243 C   0  0  0  0  0  0  0  0  0  0  0  0
   -0.7763   -4.7460   -2.6361 C   0  0  0  0  0  0  0  0  0  0  0  0
   -0.3199   -3.8596   -1.6908 C   0  0  0  0  0  0  0  0  0  0  0  0
    0.6851   -1.8291    0.2904 C   0  0  0  0  0  0  0  0  0  0  0  0
    1.1250   -2.7619    1.2739 C   0  0  0  0  0  0  0  0  0  0  0  0
    2.4068   -2.5913    1.8763 C   0  0  0  0  0  0  0  0  0  0  0  0
    3.1926   -1.4665    1.5169 C   0  0  0  0  0  0  0  0  0  0  0  0
    2.7700   -0.5622    0.5693 C   0  0  0  0  0  0  0  0  0  0  0  0
    1.5159   -0.7850   -0.0796 C   0  0  0  0  0  0  0  0  0  0  0  0
    0.3198   -3.8596    1.6907 C   0  0  0  0  0  0  0  0  0  0  0  0
    0.7761   -4.7460    2.6360 C   0  0  0  0  0  0  0  0  0  0  0  0
    2.0555   -4.5823    3.2243 C   0  0  0  0  0  0  0  0  0  0  0  0
    2.8483   -3.5249    2.8529 C   0  0  0  0  0  0  0  0  0  0  0  0
   -1.0852    0.0622    1.0409 O   0  0  0  0  0  0  0  0  0  0  0  0
    1.0852    0.0622   -1.0409 O   0  0  0  0  0  0  0  0  0  0  0  0
   -3.5383    0.6793   -0.2623 C   0  0  0  0  0  0  0  0  0  0  0  0
    3.5383    0.6793    0.2623 C   0  0  0  0  0  0  0  0  0  0  0  0
   -2.9470    1.9355   -0.5475 C   0  0  0  0  0  0  0  0  0  0  0  0
   -3.6600    3.1448   -0.2348 C   0  0  0  0  0  0  0  0  0  0  0  0
   -4.9443    3.0640    0.3079 C   0  0  0  0  0  0  0  0  0  0  0  0
   -4.8269    0.6153    0.3137 C   0  0  0  0  0  0  0  0  0  0  0  0
    4.8269    0.6152   -0.3137 C   0  0  0  0  0  0  0  0  0  0  0  0
    5.5449    1.8331   -0.5829 C   0  0  0  0  0  0  0  0  0  0  0  0
    4.9445    3.0639   -0.3079 C   0  0  0  0  0  0  0  0  0  0  0  0
    3.6601    3.1447    0.2348 C   0  0  0  0  0  0  0  0  0  0  0  0
    2.9471    1.9354    0.5475 C   0  0  0  0  0  0  0  0  0  0  0  0
   -5.5448    1.8332    0.5830 C   0  0  0  0  0  0  0  0  0  0  0  0
    6.8586    1.7596   -1.1499 C   0  0  0  0  0  0  0  0  0  0  0  0
    7.4269    0.5564   -1.4514 C   0  0  0  0  0  0  0  0  0  0  0  0
    6.7071   -0.6526   -1.2131 C   0  0  0  0  0  0  0  0  0  0  0  0
    5.4550   -0.6262   -0.6666 C   0  0  0  0  0  0  0  0  0  0  0  0
    1.6407    2.0563    1.1366 C   0  0  0  0  0  0  0  0  0  0  0  0
    1.0791    3.2832    1.3505 C   0  0  0  0  0  0  0  0  0  0  0  0
    1.7806    4.4803    1.0167 C   0  0  0  0  0  0  0  0  0  0  0  0
    3.0359    4.4105    0.4855 C   0  0  0  0  0  0  0  0  0  0  0  0
   -3.0358    4.4105   -0.4856 C   0  0  0  0  0  0  0  0  0  0  0  0
   -1.7804    4.4803   -1.0169 C   0  0  0  0  0  0  0  0  0  0  0  0
   -1.0791    3.2831   -1.3508 C   0  0  0  0  0  0  0  0  0  0  0  0
   -1.6407    2.0562   -1.1368 C   0  0  0  0  0  0  0  0  0  0  0  0
   -5.4550   -0.6261    0.6667 C   0  0  0  0  0  0  0  0  0  0  0  0
   -6.7071   -0.6524    1.2132 C   0  0  0  0  0  0  0  0  0  0  0  0
   -7.4268    0.5566    1.4517 C   0  0  0  0  0  0  0  0  0  0  0  0
   -6.8584    1.7599    1.1501 C   0  0  0  0  0  0  0  0  0  0  0  0
   -4.1464   -1.3008   -2.0244 H   0  0  0  0  0  0  0  0  0  0  0  0
   -3.8319   -3.3808   -3.3060 H   0  0  0  0  0  0  0  0  0  0  0  0
   -2.4043   -5.2936   -3.9743 H   0  0  0  0  0  0  0  0  0  0  0  0
   -0.1468   -5.5839   -2.9403 H   0  0  0  0  0  0  0  0  0  0  0  0
    0.6676   -3.9870   -1.2437 H   0  0  0  0  0  0  0  0  0  0  0  0
    4.1462   -1.3008    2.0245 H   0  0  0  0  0  0  0  0  0  0  0  0
   -0.6677   -3.9870    1.2435 H   0  0  0  0  0  0  0  0  0  0  0  0
    0.1466   -5.5838    2.9402 H   0  0  0  0  0  0  0  0  0  0  0  0
    2.4040   -5.2935    3.9744 H   0  0  0  0  0  0  0  0  0  0  0  0
    3.8316   -3.3808    3.3061 H   0  0  0  0  0  0  0  0  0  0  0  0
   -1.7380    0.7624    1.1752 H   0  0  0  0  0  0  0  0  0  0  0  0
    1.7380    0.7624   -1.1752 H   0  0  0  0  0  0  0  0  0  0  0  0
   -5.4883    3.9849    0.5323 H   0  0  0  0  0  0  0  0  0  0  0  0
    5.4886    3.9847   -0.5322 H   0  0  0  0  0  0  0  0  0  0  0  0
    7.3922    2.6933   -1.3390 H   0  0  0  0  0  0  0  0  0  0  0  0
    8.4275    0.5117   -1.8835 H   0  0  0  0  0  0  0  0  0  0  0  0
    7.1626   -1.6082   -1.4769 H   0  0  0  0  0  0  0  0  0  0  0  0
    4.9119   -1.5563   -0.5002 H   0  0  0  0  0  0  0  0  0  0  0  0
    1.0820    1.1575    1.4021 H   0  0  0  0  0  0  0  0  0  0  0  0
    0.0780    3.3517    1.7804 H   0  0  0  0  0  0  0  0  0  0  0  0
    1.3108    5.4487    1.1961 H   0  0  0  0  0  0  0  0  0  0  0  0
    3.5907    5.3176    0.2371 H   0  0  0  0  0  0  0  0  0  0  0  0
   -3.5904    5.3177   -0.2372 H   0  0  0  0  0  0  0  0  0  0  0  0
   -1.3106    5.4487   -1.1964 H   0  0  0  0  0  0  0  0  0  0  0  0
   -0.0779    3.3516   -1.7807 H   0  0  0  0  0  0  0  0  0  0  0  0
   -1.0821    1.1574   -1.4024 H   0  0  0  0  0  0  0  0  0  0  0  0
   -4.9120   -1.5562    0.5002 H   0  0  0  0  0  0  0  0  0  0  0  0
   -7.1626   -1.6080    1.4770 H   0  0  0  0  0  0  0  0  0  0  0  0
   -8.4274    0.5121    1.8838 H   0  0  0  0  0  0  0  0  0  0  0  0
   -7.3920    2.6935    1.3393 H   0  0  0  0  0  0  0  0  0  0  0  0
  1  2  1  0  0  0  0
  1  6  2  0  0  0  0
  1  7  1  0  0  0  0
  2  3  2  0  0  0  0
  2 10  1  0  0  0  0
  3  4  1  0  0  0  0
  3 11  1  0  0  0  0
  4  5  2  0  0  0  0
  4 21  1  0  0  0  0
  5  6  1  0  0  0  0
  5 23  1  0  0  0  0
  6 51  1  0  0  0  0
  7  8  2  0  0  0  0
  7 52  1  0  0  0  0
  8  9  1  0  0  0  0
  8 53  1  0  0  0  0
  9 10  2  0  0  0  0
  9 54  1  0  0  0  0
 10 55  1  0  0  0  0
 11 12  2  0  0  0  0
 11 16  1  0  0  0  0
 12 13  1  0  0  0  0
 12 17  1  0  0  0  0
 13 14  2  0  0  0  0
 13 20  1  0  0  0  0
 14 15  1  0  0  0  0
 14 56  1  0  0  0  0
 15 16  2  0  0  0  0
 15 24  1  0  0  0  0
 16 22  1  0  0  0  0
 17 18  2  0  0  0  0
 17 57  1  0  0  0  0
 18 19  1  0  0  0  0
 18 58  1  0  0  0  0
 19 20  2  0  0  0  0
 19 59  1  0  0  0  0
 20 60  1  0  0  0  0
 21 61  1  0  0  0  0
 22 62  1  0  0  0  0
 23 25  2  0  0  0  0
 23 28  1  0  0  0  0
 24 29  2  0  0  0  0
 24 33  1  0  0  0  0
 25 26  1  0  0  0  0
 25 46  1  0  0  0  0
 26 27  2  0  0  0  0
 26 43  1  0  0  0  0
 27 34  1  0  0  0  0
 27 63  1  0  0  0  0
 28 34  2  0  0  0  0
 28 47  1  0  0  0  0
 29 30  1  0  0  0  0
 29 38  1  0  0  0  0
 30 31  2  0  0  0  0
 30 35  1  0  0  0  0
 31 32  1  0  0  0  0
 31 64  1  0  0  0  0
 32 33  2  0  0  0  0
 32 42  1  0  0  0  0
 33 39  1  0  0  0  0
 34 50  1  0  0  0  0
 35 36  2  0  0  0  0
 35 65  1  0  0  0  0
 36 37  1  0  0  0  0
 36 66  1  0  0  0  0
 37 38  2  0  0  0  0
 37 67  1  0  0  0  0
 38 68  1  0  0  0  0
 39 40  2  0  0  0  0
 39 69  1  0  0  0  0
 40 41  1  0  0  0  0
 40 70  1  0  0  0  0
 41 42  2  0  0  0  0
 41 71  1  0  0  0  0
 42 72  1  0  0  0  0
 43 44  2  0  0  0  0
 43 73  1  0  0  0  0
 44 45  1  0  0  0  0
 44 74  1  0  0  0  0
 45 46  2  0  0  0  0
 45 75  1  0  0  0  0
 46 76  1  0  0  0  0
 47 48  2  0  0  0  0
 47 77  1  0  0  0  0
 48 49  1  0  0  0  0
 48 78  1  0  0  0  0
 49 50  2  0  0  0  0
 49 79  1  0  0  0  0
 50 80  1  0  0  0  0
M  END
$$$$
