Title Card Required
 OpenBabel03192317493D

 46 48  0  0  1  0  0  0  0  0999 V2000
   -1.3792    2.1048   -0.3144 C   0  0  0  0  0  0  0  0  0  0  0  0
   -1.3399    0.7066   -0.3353 C   0  0  0  0  0  0  0  0  0  0  0  0
   -0.1270    0.0345   -0.1699 C   0  0  0  0  0  0  0  0  0  0  0  0
    1.0462    0.7681    0.0198 C   0  0  0  0  0  0  0  0  0  0  0  0
    1.0065    2.1661    0.0453 C   0  0  0  0  0  0  0  0  0  0  0  0
   -0.2058    2.8300   -0.1242 C   0  0  0  0  0  0  0  0  0  0  0  0
   -2.5948   -0.0447   -0.5294 C   0  0  0  0  0  0  0  0  0  0  0  0
    2.3388    0.0794    0.1965 C   0  0  0  0  0  0  0  0  0  0  0  0
   -2.4938   -1.3950   -0.4761 O   0  0  0  0  0  0  0  0  0  0  0  0
   -3.7901   -1.9035   -0.7925 C   0  0  0  0  0  0  0  0  0  0  0  0
   -4.6951   -0.6491   -0.7615 C   0  0  2  0  0  0  0  0  0  0  0  0
   -3.7427    0.4606   -0.7238 N   0  0  0  0  0  0  0  0  0  0  0  0
    3.4630    0.6374    0.3808 N   0  0  0  0  0  0  0  0  0  0  0  0
    4.4493   -0.4282    0.5497 C   0  0  1  0  0  0  0  0  0  0  0  0
    3.6562   -1.7133    0.2130 C   0  0  0  0  0  0  0  0  0  0  0  0
    2.2982   -1.2748    0.1691 O   0  0  0  0  0  0  0  0  0  0  0  0
   -5.6478   -0.5934    0.4465 C   0  0  0  0  0  0  0  0  0  0  0  0
    5.6974   -0.2227   -0.3112 C   0  0  0  0  0  0  0  0  0  0  0  0
   -4.8803   -0.5842    1.7674 C   0  0  0  0  0  0  0  0  0  0  0  0
   -6.5749    0.6141    0.3412 C   0  0  0  0  0  0  0  0  0  0  0  0
    6.3489    1.1221   -0.0070 C   0  0  0  0  0  0  0  0  0  0  0  0
    6.6798   -1.3746   -0.1094 C   0  0  0  0  0  0  0  0  0  0  0  0
   -2.3423    2.5990   -0.4495 H   0  0  0  0  0  0  0  0  0  0  0  0
   -0.0964   -1.0544   -0.1877 H   0  0  0  0  0  0  0  0  0  0  0  0
    1.9398    2.7092    0.1999 H   0  0  0  0  0  0  0  0  0  0  0  0
   -0.2364    3.9200   -0.1063 H   0  0  0  0  0  0  0  0  0  0  0  0
   -4.0673   -2.6631   -0.0482 H   0  0  0  0  0  0  0  0  0  0  0  0
   -3.7484   -2.3732   -1.7863 H   0  0  0  0  0  0  0  0  0  0  0  0
   -5.3010   -0.5788   -1.6785 H   0  0  0  0  0  0  0  0  0  0  0  0
    4.7707   -0.4292    1.6088 H   0  0  0  0  0  0  0  0  0  0  0  0
    3.9272   -2.1121   -0.7791 H   0  0  0  0  0  0  0  0  0  0  0  0
    3.7495   -2.5121    0.9590 H   0  0  0  0  0  0  0  0  0  0  0  0
   -6.2585   -1.5131    0.3985 H   0  0  0  0  0  0  0  0  0  0  0  0
    5.3589   -0.2204   -1.3630 H   0  0  0  0  0  0  0  0  0  0  0  0
   -4.3271    0.3604    1.8770 H   0  0  0  0  0  0  0  0  0  0  0  0
   -5.5700   -0.6757    2.6184 H   0  0  0  0  0  0  0  0  0  0  0  0
   -4.1528   -1.4078    1.8325 H   0  0  0  0  0  0  0  0  0  0  0  0
   -7.1803    0.5761   -0.5765 H   0  0  0  0  0  0  0  0  0  0  0  0
   -7.2595    0.6616    1.2003 H   0  0  0  0  0  0  0  0  0  0  0  0
   -5.9804    1.5387    0.3167 H   0  0  0  0  0  0  0  0  0  0  0  0
    6.7018    1.1488    1.0366 H   0  0  0  0  0  0  0  0  0  0  0  0
    7.2157    1.2950   -0.6610 H   0  0  0  0  0  0  0  0  0  0  0  0
    5.6297    1.9394   -0.1426 H   0  0  0  0  0  0  0  0  0  0  0  0
    6.2367   -2.3499   -0.3620 H   0  0  0  0  0  0  0  0  0  0  0  0
    7.5722   -1.2425   -0.7375 H   0  0  0  0  0  0  0  0  0  0  0  0
    7.0124   -1.4154    0.9404 H   0  0  0  0  0  0  0  0  0  0  0  0
  1  2  2  0  0  0  0
  1  6  1  0  0  0  0
  1 23  1  0  0  0  0
  2  3  1  0  0  0  0
  2  7  1  0  0  0  0
  3  4  2  0  0  0  0
  3 24  1  0  0  0  0
  4  5  1  0  0  0  0
  4  8  1  0  0  0  0
  5  6  2  0  0  0  0
  5 25  1  0  0  0  0
  6 26  1  0  0  0  0
  7  9  1  0  0  0  0
  7 12  2  0  0  0  0
  8 13  2  0  0  0  0
  8 16  1  0  0  0  0
  9 10  1  0  0  0  0
 10 11  1  0  0  0  0
 10 27  1  0  0  0  0
 10 28  1  0  0  0  0
 11 12  1  0  0  0  0
 11 17  1  0  0  0  0
 11 29  1  6  0  0  0
 13 14  1  0  0  0  0
 14 15  1  0  0  0  0
 14 18  1  0  0  0  0
 14 30  1  1  0  0  0
 15 16  1  0  0  0  0
 15 31  1  0  0  0  0
 15 32  1  0  0  0  0
 17 19  1  0  0  0  0
 17 20  1  0  0  0  0
 17 33  1  0  0  0  0
 18 21  1  0  0  0  0
 18 22  1  0  0  0  0
 18 34  1  0  0  0  0
 19 35  1  0  0  0  0
 19 36  1  0  0  0  0
 19 37  1  0  0  0  0
 20 38  1  0  0  0  0
 20 39  1  0  0  0  0
 20 40  1  0  0  0  0
 21 41  1  0  0  0  0
 21 42  1  0  0  0  0
 21 43  1  0  0  0  0
 22 44  1  0  0  0  0
 22 45  1  0  0  0  0
 22 46  1  0  0  0  0
M  END
$$$$
