Title Card Required
 OpenBabel03192317423D

 52 54  0  0  1  0  0  0  0  0999 V2000
    1.3169   -0.4846   -0.9796 N   0  0  0  0  0  0  0  0  0  0  0  0
    0.9667   -1.7127   -1.4252 C   0  0  0  0  0  0  0  0  0  0  0  0
    1.9835   -2.7473   -2.2284 S   0  0  0  0  0  0  0  0  0  0  0  0
   -0.3319   -2.0973   -1.1500 N   0  0  0  0  0  0  0  0  0  0  0  0
   -1.4243   -1.3133   -0.7673 C   0  0  0  0  0  0  0  0  0  0  0  0
   -1.5949    0.0014   -1.2332 C   0  0  0  0  0  0  0  0  0  0  0  0
   -2.7065    0.7357   -0.8429 C   0  0  0  0  0  0  0  0  0  0  0  0
   -3.6914    0.1869   -0.0205 C   0  0  0  0  0  0  0  0  0  0  0  0
   -3.5313   -1.1241    0.4110 C   0  0  0  0  0  0  0  0  0  0  0  0
   -2.4073   -1.8686    0.0583 C   0  0  0  0  0  0  0  0  0  0  0  0
   -4.5855   -1.7861    1.2622 C   0  0  0  0  0  0  0  0  0  0  0  0
   -5.4897   -0.9122    1.6995 F   0  0  0  0  0  0  0  0  0  0  0  0
   -5.2335   -2.7275    0.5746 F   0  0  0  0  0  0  0  0  0  0  0  0
   -4.0435   -2.3810    2.3259 F   0  0  0  0  0  0  0  0  0  0  0  0
   -2.8735    2.1576   -1.3137 C   0  0  0  0  0  0  0  0  0  0  0  0
   -2.0015    2.4719   -2.2720 F   0  0  0  0  0  0  0  0  0  0  0  0
   -4.0985    2.3756   -1.7841 F   0  0  0  0  0  0  0  0  0  0  0  0
   -2.6838    3.0243   -0.3102 F   0  0  0  0  0  0  0  0  0  0  0  0
    2.6679    0.0340   -1.0802 C   0  0  1  0  0  0  0  0  0  0  0  0
    2.6217    1.5817   -0.9270 C   0  0  1  0  0  0  0  0  0  0  0  0
    1.9319    2.0114    0.3620 C   0  0  0  0  0  0  0  0  0  0  0  0
    2.6186    2.0392    1.5824 C   0  0  0  0  0  0  0  0  0  0  0  0
    1.9597    2.3767    2.7627 C   0  0  0  0  0  0  0  0  0  0  0  0
    0.6010    2.6942    2.7434 C   0  0  0  0  0  0  0  0  0  0  0  0
   -0.0915    2.6900    1.5345 C   0  0  0  0  0  0  0  0  0  0  0  0
    0.5748    2.3583    0.3535 C   0  0  0  0  0  0  0  0  0  0  0  0
    3.6310   -0.6301   -0.1104 C   0  0  0  0  0  0  0  0  0  0  0  0
    3.2115   -1.0776    1.1457 C   0  0  0  0  0  0  0  0  0  0  0  0
    4.1231   -1.6334    2.0415 C   0  0  0  0  0  0  0  0  0  0  0  0
    5.4673   -1.7497    1.6903 C   0  0  0  0  0  0  0  0  0  0  0  0
    5.8923   -1.3166    0.4347 C   0  0  0  0  0  0  0  0  0  0  0  0
    4.9781   -0.7652   -0.4614 C   0  0  0  0  0  0  0  0  0  0  0  0
    3.9581    2.1012   -1.1357 N   0  0  0  0  0  0  0  0  0  0  0  0
    0.7077   -0.0265   -0.3055 H   0  0  0  0  0  0  0  0  0  0  0  0
   -0.4962   -3.0818   -1.3294 H   0  0  0  0  0  0  0  0  0  0  0  0
   -0.8663    0.4358   -1.9170 H   0  0  0  0  0  0  0  0  0  0  0  0
   -4.5688    0.7660    0.2684 H   0  0  0  0  0  0  0  0  0  0  0  0
   -2.2880   -2.8876    0.4317 H   0  0  0  0  0  0  0  0  0  0  0  0
    3.0260   -0.1680   -2.0989 H   0  0  0  0  0  0  0  0  0  0  0  0
    1.9941    1.9329   -1.7627 H   0  0  0  0  0  0  0  0  0  0  0  0
    3.6804    1.7854    1.6128 H   0  0  0  0  0  0  0  0  0  0  0  0
    2.5111    2.3885    3.7042 H   0  0  0  0  0  0  0  0  0  0  0  0
    0.0855    2.9556    3.6687 H   0  0  0  0  0  0  0  0  0  0  0  0
   -1.1485    2.9554    1.5003 H   0  0  0  0  0  0  0  0  0  0  0  0
    0.0351    2.3908   -0.5982 H   0  0  0  0  0  0  0  0  0  0  0  0
    2.1600   -0.9912    1.4279 H   0  0  0  0  0  0  0  0  0  0  0  0
    3.7802   -1.9803    3.0177 H   0  0  0  0  0  0  0  0  0  0  0  0
    6.1811   -2.1870    2.3901 H   0  0  0  0  0  0  0  0  0  0  0  0
    6.9395   -1.4196    0.1460 H   0  0  0  0  0  0  0  0  0  0  0  0
    5.3057   -0.4349   -1.4496 H   0  0  0  0  0  0  0  0  0  0  0  0
    3.9488    3.1177   -1.0904 H   0  0  0  0  0  0  0  0  0  0  0  0
    4.5924    1.7739   -0.4087 H   0  0  0  0  0  0  0  0  0  0  0  0
  1  2  1  0  0  0  0
  1 19  1  0  0  0  0
  1 34  1  0  0  0  0
  2  3  2  0  0  0  0
  2  4  1  0  0  0  0
  4  5  1  0  0  0  0
  4 35  1  0  0  0  0
  5  6  2  0  0  0  0
  5 10  1  0  0  0  0
  6  7  1  0  0  0  0
  6 36  1  0  0  0  0
  7  8  2  0  0  0  0
  7 15  1  0  0  0  0
  8  9  1  0  0  0  0
  8 37  1  0  0  0  0
  9 10  2  0  0  0  0
  9 11  1  0  0  0  0
 10 38  1  0  0  0  0
 11 12  1  0  0  0  0
 11 13  1  0  0  0  0
 11 14  1  0  0  0  0
 15 16  1  0  0  0  0
 15 17  1  0  0  0  0
 15 18  1  0  0  0  0
 19 20  1  0  0  0  0
 19 27  1  0  0  0  0
 19 39  1  6  0  0  0
 20 21  1  0  0  0  0
 20 33  1  0  0  0  0
 20 40  1  6  0  0  0
 21 22  2  0  0  0  0
 21 26  1  0  0  0  0
 22 23  1  0  0  0  0
 22 41  1  0  0  0  0
 23 24  2  0  0  0  0
 23 42  1  0  0  0  0
 24 25  1  0  0  0  0
 24 43  1  0  0  0  0
 25 26  2  0  0  0  0
 25 44  1  0  0  0  0
 26 45  1  0  0  0  0
 27 28  2  0  0  0  0
 27 32  1  0  0  0  0
 28 29  1  0  0  0  0
 28 46  1  0  0  0  0
 29 30  2  0  0  0  0
 29 47  1  0  0  0  0
 30 31  1  0  0  0  0
 30 48  1  0  0  0  0
 31 32  2  0  0  0  0
 31 49  1  0  0  0  0
 32 50  1  0  0  0  0
 33 51  1  0  0  0  0
 33 52  1  0  0  0  0
M  END
$$$$
