Title Card Required
 OpenBabel03192317463D

 31 32  0  0  1  0  0  0  0  0999 V2000
    0.2921   -1.5275   -0.0475 O   0  0  0  0  0  0  0  0  0  0  0  0
    0.7187   -0.2701    0.1759 C   0  0  0  0  0  0  0  0  0  0  0  0
   -0.1361    0.6145    0.4898 N   0  0  0  0  0  0  0  0  0  0  0  0
   -1.4370   -0.0543    0.5395 C   0  0  2  0  0  0  0  0  0  0  0  0
   -1.1333   -1.4773    0.0117 C   0  0  0  0  0  0  0  0  0  0  0  0
    2.1774   -0.0218    0.0461 C   0  0  0  0  0  0  0  0  0  0  0  0
    2.6639    1.2657    0.3014 C   0  0  0  0  0  0  0  0  0  0  0  0
    4.0300    1.4862    0.1748 C   0  0  0  0  0  0  0  0  0  0  0  0
    4.8485    0.4207   -0.1963 C   0  0  0  0  0  0  0  0  0  0  0  0
    4.2567   -0.8220   -0.4260 C   0  0  0  0  0  0  0  0  0  0  0  0
    2.9514   -1.0441   -0.3098 N   0  0  0  0  0  0  0  0  0  0  0  0
   -2.4870    0.6960   -0.2715 C   0  0  0  0  0  0  0  0  0  0  0  0
   -3.8673    0.0328   -0.3055 C   0  0  0  0  0  0  0  0  0  0  0  0
   -4.4579   -0.1521    1.0924 C   0  0  0  0  0  0  0  0  0  0  0  0
   -4.8147    0.8453   -1.1864 C   0  0  0  0  0  0  0  0  0  0  0  0
   -1.7548   -0.0843    1.5957 H   0  0  0  0  0  0  0  0  0  0  0  0
   -1.4921   -2.2865    0.6607 H   0  0  0  0  0  0  0  0  0  0  0  0
   -1.5293   -1.6332   -1.0057 H   0  0  0  0  0  0  0  0  0  0  0  0
    1.9622    2.0485    0.5883 H   0  0  0  0  0  0  0  0  0  0  0  0
    4.4523    2.4748    0.3621 H   0  0  0  0  0  0  0  0  0  0  0  0
    5.9260    0.5452   -0.3077 H   0  0  0  0  0  0  0  0  0  0  0  0
    4.8709   -1.6792   -0.7186 H   0  0  0  0  0  0  0  0  0  0  0  0
   -2.5777    1.7155    0.1390 H   0  0  0  0  0  0  0  0  0  0  0  0
   -2.1047    0.8050   -1.3008 H   0  0  0  0  0  0  0  0  0  0  0  0
   -3.7574   -0.9671   -0.7639 H   0  0  0  0  0  0  0  0  0  0  0  0
   -4.5262    0.8164    1.6139 H   0  0  0  0  0  0  0  0  0  0  0  0
   -5.4719   -0.5740    1.0342 H   0  0  0  0  0  0  0  0  0  0  0  0
   -3.8545   -0.8281    1.7156 H   0  0  0  0  0  0  0  0  0  0  0  0
   -4.4069    0.9738   -2.1997 H   0  0  0  0  0  0  0  0  0  0  0  0
   -5.7972    0.3588   -1.2722 H   0  0  0  0  0  0  0  0  0  0  0  0
   -4.9703    1.8479   -0.7571 H   0  0  0  0  0  0  0  0  0  0  0  0
  1  2  1  0  0  0  0
  1  5  1  0  0  0  0
  2  3  2  0  0  0  0
  2  6  1  0  0  0  0
  3  4  1  0  0  0  0
  4  5  1  0  0  0  0
  4 12  1  0  0  0  0
  4 16  1  1  0  0  0
  5 17  1  0  0  0  0
  5 18  1  0  0  0  0
  6  7  2  0  0  0  0
  6 11  1  0  0  0  0
  7  8  1  0  0  0  0
  7 19  1  0  0  0  0
  8  9  2  0  0  0  0
  8 20  1  0  0  0  0
  9 10  1  0  0  0  0
  9 21  1  0  0  0  0
 10 11  2  0  0  0  0
 10 22  1  0  0  0  0
 12 13  1  0  0  0  0
 12 23  1  0  0  0  0
 12 24  1  0  0  0  0
 13 14  1  0  0  0  0
 13 15  1  0  0  0  0
 13 25  1  0  0  0  0
 14 26  1  0  0  0  0
 14 27  1  0  0  0  0
 14 28  1  0  0  0  0
 15 29  1  0  0  0  0
 15 30  1  0  0  0  0
 15 31  1  0  0  0  0
M  END
$$$$
