Title Card Required
 OpenBabel03192317413D

 31 32  0  0  1  0  0  0  0  0999 V2000
    0.2067   -1.8127    0.2137 O   0  0  0  0  0  0  0  0  0  0  0  0
    0.4674   -0.4942    0.1877 C   0  0  0  0  0  0  0  0  0  0  0  0
   -0.5021    0.3195    0.2903 N   0  0  0  0  0  0  0  0  0  0  0  0
   -1.7188   -0.4795    0.4179 C   0  0  2  0  0  0  0  0  0  0  0  0
   -1.2140   -1.9406    0.2912 C   0  0  0  0  0  0  0  0  0  0  0  0
    1.8911   -0.0921    0.0535 C   0  0  0  0  0  0  0  0  0  0  0  0
    2.2086    1.2709    0.0869 C   0  0  0  0  0  0  0  0  0  0  0  0
    3.5434    1.6357   -0.0388 C   0  0  0  0  0  0  0  0  0  0  0  0
    4.4995    0.6332   -0.1912 C   0  0  0  0  0  0  0  0  0  0  0  0
    4.0716   -0.6948   -0.2109 C   0  0  0  0  0  0  0  0  0  0  0  0
    2.7978   -1.0555   -0.0913 N   0  0  0  0  0  0  0  0  0  0  0  0
   -2.7777   -0.1007   -0.6228 C   0  0  2  0  0  0  0  0  0  0  0  0
   -2.9935    1.4170   -0.6944 C   0  0  0  0  0  0  0  0  0  0  0  0
   -3.3133    2.0824    0.6412 C   0  0  0  0  0  0  0  0  0  0  0  0
   -4.0735   -0.8646   -0.3531 C   0  0  0  0  0  0  0  0  0  0  0  0
   -2.1472   -0.2975    1.4196 H   0  0  0  0  0  0  0  0  0  0  0  0
   -1.4641   -2.5773    1.1497 H   0  0  0  0  0  0  0  0  0  0  0  0
   -1.5711   -2.4270   -0.6309 H   0  0  0  0  0  0  0  0  0  0  0  0
    1.4076    1.9992    0.2101 H   0  0  0  0  0  0  0  0  0  0  0  0
    3.8351    2.6870   -0.0174 H   0  0  0  0  0  0  0  0  0  0  0  0
    5.5589    0.8700   -0.2933 H   0  0  0  0  0  0  0  0  0  0  0  0
    4.7974   -1.5050   -0.3295 H   0  0  0  0  0  0  0  0  0  0  0  0
   -2.3852   -0.4218   -1.6044 H   0  0  0  0  0  0  0  0  0  0  0  0
   -2.0819    1.8742   -1.1055 H   0  0  0  0  0  0  0  0  0  0  0  0
   -3.8038    1.6132   -1.4158 H   0  0  0  0  0  0  0  0  0  0  0  0
   -2.4520    2.0217    1.3223 H   0  0  0  0  0  0  0  0  0  0  0  0
   -3.5452    3.1470    0.4979 H   0  0  0  0  0  0  0  0  0  0  0  0
   -4.1807    1.6221    1.1385 H   0  0  0  0  0  0  0  0  0  0  0  0
   -4.8251   -0.6483   -1.1257 H   0  0  0  0  0  0  0  0  0  0  0  0
   -3.9097   -1.9531   -0.3442 H   0  0  0  0  0  0  0  0  0  0  0  0
   -4.5012   -0.5868    0.6225 H   0  0  0  0  0  0  0  0  0  0  0  0
  1  2  1  0  0  0  0
  1  5  1  0  0  0  0
  2  3  2  0  0  0  0
  2  6  1  0  0  0  0
  3  4  1  0  0  0  0
  4  5  1  0  0  0  0
  4 12  1  0  0  0  0
  4 16  1  1  0  0  0
  5 17  1  0  0  0  0
  5 18  1  0  0  0  0
  6  7  2  0  0  0  0
  6 11  1  0  0  0  0
  7  8  1  0  0  0  0
  7 19  1  0  0  0  0
  8  9  2  0  0  0  0
  8 20  1  0  0  0  0
  9 10  1  0  0  0  0
  9 21  1  0  0  0  0
 10 11  2  0  0  0  0
 10 22  1  0  0  0  0
 12 13  1  0  0  0  0
 12 15  1  0  0  0  0
 12 23  1  6  0  0  0
 13 14  1  0  0  0  0
 13 24  1  0  0  0  0
 13 25  1  0  0  0  0
 14 26  1  0  0  0  0
 14 27  1  0  0  0  0
 14 28  1  0  0  0  0
 15 29  1  0  0  0  0
 15 30  1  0  0  0  0
 15 31  1  0  0  0  0
M  END
$$$$
