Title Card Required
 OpenBabel03192317563D

 52 55  0  0  1  0  0  0  0  0999 V2000
    1.0719   -1.3386    1.2039 C   0  0  1  0  0  0  0  0  0  0  0  0
    0.2676   -0.0801    0.7732 C   0  0  1  0  0  0  0  0  0  0  0  0
    1.1087    1.1687    0.6393 C   0  0  0  0  0  0  0  0  0  0  0  0
    0.9871    2.1869    1.5923 C   0  0  0  0  0  0  0  0  0  0  0  0
    1.7290    3.3629    1.4875 C   0  0  0  0  0  0  0  0  0  0  0  0
    2.6084    3.5388    0.4217 C   0  0  0  0  0  0  0  0  0  0  0  0
    2.7352    2.5350   -0.5393 C   0  0  0  0  0  0  0  0  0  0  0  0
    1.9902    1.3621   -0.4353 C   0  0  0  0  0  0  0  0  0  0  0  0
    2.2147   -1.6865    0.2598 C   0  0  0  0  0  0  0  0  0  0  0  0
    3.5251   -1.2692    0.5092 C   0  0  0  0  0  0  0  0  0  0  0  0
    4.5500   -1.5601   -0.3904 C   0  0  0  0  0  0  0  0  0  0  0  0
    4.2785   -2.2801   -1.5527 C   0  0  0  0  0  0  0  0  0  0  0  0
    2.9783   -2.7189   -1.8026 C   0  0  0  0  0  0  0  0  0  0  0  0
    1.9580   -2.4285   -0.8990 C   0  0  0  0  0  0  0  0  0  0  0  0
   -0.7562   -0.3300   -0.7860 P   0  0  0  0  0  0  0  0  0  0  0  0
   -2.0697   -1.4812   -0.1771 C   0  0  0  0  0  0  0  0  0  0  0  0
   -2.2583   -1.8779    1.1543 C   0  0  0  0  0  0  0  0  0  0  0  0
   -3.3010   -2.7406    1.4966 C   0  0  0  0  0  0  0  0  0  0  0  0
   -4.1731   -3.2146    0.5187 C   0  0  0  0  0  0  0  0  0  0  0  0
   -3.9933   -2.8308   -0.8100 C   0  0  0  0  0  0  0  0  0  0  0  0
   -2.9449   -1.9804   -1.1530 C   0  0  0  0  0  0  0  0  0  0  0  0
   -1.6615    1.2825   -0.7239 C   0  0  0  0  0  0  0  0  0  0  0  0
   -1.1940    2.3163   -1.5446 C   0  0  0  0  0  0  0  0  0  0  0  0
   -1.7724    3.5836   -1.4900 C   0  0  0  0  0  0  0  0  0  0  0  0
   -2.8365    3.8268   -0.6231 C   0  0  0  0  0  0  0  0  0  0  0  0
   -3.3191    2.7992    0.1873 C   0  0  0  0  0  0  0  0  0  0  0  0
   -2.7348    1.5344    0.1389 C   0  0  0  0  0  0  0  0  0  0  0  0
    1.4383   -1.1421    2.5968 N   0  0  0  0  0  0  0  0  0  0  0  0
    0.3728   -2.1905    1.1650 H   0  0  0  0  0  0  0  0  0  0  0  0
   -0.4452    0.1034    1.5907 H   0  0  0  0  0  0  0  0  0  0  0  0
    0.2863    2.0569    2.4207 H   0  0  0  0  0  0  0  0  0  0  0  0
    1.6130    4.1453    2.2393 H   0  0  0  0  0  0  0  0  0  0  0  0
    3.1898    4.4582    0.3357 H   0  0  0  0  0  0  0  0  0  0  0  0
    3.4182    2.6668   -1.3802 H   0  0  0  0  0  0  0  0  0  0  0  0
    2.0865    0.5879   -1.2000 H   0  0  0  0  0  0  0  0  0  0  0  0
    3.7478   -0.6988    1.4130 H   0  0  0  0  0  0  0  0  0  0  0  0
    5.5659   -1.2201   -0.1824 H   0  0  0  0  0  0  0  0  0  0  0  0
    5.0798   -2.5075   -2.2576 H   0  0  0  0  0  0  0  0  0  0  0  0
    2.7573   -3.2961   -2.7018 H   0  0  0  0  0  0  0  0  0  0  0  0
    0.9426   -2.7828   -1.0954 H   0  0  0  0  0  0  0  0  0  0  0  0
   -1.5931   -1.5238    1.9453 H   0  0  0  0  0  0  0  0  0  0  0  0
   -3.4310   -3.0402    2.5378 H   0  0  0  0  0  0  0  0  0  0  0  0
   -4.9895   -3.8854    0.7908 H   0  0  0  0  0  0  0  0  0  0  0  0
   -4.6685   -3.2007   -1.5833 H   0  0  0  0  0  0  0  0  0  0  0  0
   -2.8018   -1.6915   -2.1977 H   0  0  0  0  0  0  0  0  0  0  0  0
   -0.3607    2.1271   -2.2256 H   0  0  0  0  0  0  0  0  0  0  0  0
   -1.3921    4.3813   -2.1299 H   0  0  0  0  0  0  0  0  0  0  0  0
   -3.2934    4.8169   -0.5806 H   0  0  0  0  0  0  0  0  0  0  0  0
   -4.1556    2.9834    0.8635 H   0  0  0  0  0  0  0  0  0  0  0  0
   -3.1203    0.7356    0.7771 H   0  0  0  0  0  0  0  0  0  0  0  0
    2.0647   -1.8809    2.9109 H   0  0  0  0  0  0  0  0  0  0  0  0
    1.9366   -0.2590    2.7076 H   0  0  0  0  0  0  0  0  0  0  0  0
  1  2  1  0  0  0  0
  1  9  1  0  0  0  0
  1 28  1  0  0  0  0
  1 29  1  6  0  0  0
  2  3  1  0  0  0  0
  2 15  1  0  0  0  0
  2 30  1  1  0  0  0
  3  4  2  0  0  0  0
  3  8  1  0  0  0  0
  4  5  1  0  0  0  0
  4 31  1  0  0  0  0
  5  6  2  0  0  0  0
  5 32  1  0  0  0  0
  6  7  1  0  0  0  0
  6 33  1  0  0  0  0
  7  8  2  0  0  0  0
  7 34  1  0  0  0  0
  8 35  1  0  0  0  0
  9 10  2  0  0  0  0
  9 14  1  0  0  0  0
 10 11  1  0  0  0  0
 10 36  1  0  0  0  0
 11 12  2  0  0  0  0
 11 37  1  0  0  0  0
 12 13  1  0  0  0  0
 12 38  1  0  0  0  0
 13 14  2  0  0  0  0
 13 39  1  0  0  0  0
 14 40  1  0  0  0  0
 15 16  1  0  0  0  0
 15 22  1  0  0  0  0
 16 17  2  0  0  0  0
 16 21  1  0  0  0  0
 17 18  1  0  0  0  0
 17 41  1  0  0  0  0
 18 19  2  0  0  0  0
 18 42  1  0  0  0  0
 19 20  1  0  0  0  0
 19 43  1  0  0  0  0
 20 21  2  0  0  0  0
 20 44  1  0  0  0  0
 21 45  1  0  0  0  0
 22 23  2  0  0  0  0
 22 27  1  0  0  0  0
 23 24  1  0  0  0  0
 23 46  1  0  0  0  0
 24 25  2  0  0  0  0
 24 47  1  0  0  0  0
 25 26  1  0  0  0  0
 25 48  1  0  0  0  0
 26 27  2  0  0  0  0
 26 49  1  0  0  0  0
 27 50  1  0  0  0  0
 28 51  1  0  0  0  0
 28 52  1  0  0  0  0
M  END
$$$$
