Title Card Required
 OpenBabel03192317443D

 43 46  0  0  1  0  0  0  0  0999 V2000
    0.0952   -1.8929   -0.0311 C   0  0  2  0  0  0  0  0  0  0  0  0
    0.2104   -1.2542    1.3903 C   0  0  2  0  0  0  0  0  0  0  0  0
   -1.2433   -1.1414    1.9160 C   0  0  0  0  0  0  0  0  0  0  0  0
   -2.0661   -1.0945    0.6508 C   0  0  0  0  0  0  0  0  0  0  0  0
   -3.3780   -0.6616    0.4716 C   0  0  0  0  0  0  0  0  0  0  0  0
   -3.9396   -0.7219   -0.8048 C   0  0  0  0  0  0  0  0  0  0  0  0
   -3.2060   -1.2256   -1.8832 C   0  0  0  0  0  0  0  0  0  0  0  0
   -1.8900   -1.6515   -1.7029 C   0  0  0  0  0  0  0  0  0  0  0  0
   -1.3225   -1.5545   -0.4357 C   0  0  0  0  0  0  0  0  0  0  0  0
    0.3117   -3.3300   -0.1091 N   0  0  0  0  0  0  0  0  0  0  0  0
    1.0055    0.4523    1.5272 P   0  0  0  0  0  0  0  0  0  0  0  0
   -0.2001    1.4679    0.5667 C   0  0  0  0  0  0  0  0  0  0  0  0
   -0.3817    1.3868   -0.8215 C   0  0  0  0  0  0  0  0  0  0  0  0
   -1.4203    2.0756   -1.4409 C   0  0  0  0  0  0  0  0  0  0  0  0
   -2.2889    2.8651   -0.6841 C   0  0  0  0  0  0  0  0  0  0  0  0
   -2.1026    2.9777    0.6909 C   0  0  0  0  0  0  0  0  0  0  0  0
   -1.0590    2.2865    1.3094 C   0  0  0  0  0  0  0  0  0  0  0  0
    2.4376    0.3185    0.3806 C   0  0  0  0  0  0  0  0  0  0  0  0
    2.8566    1.4191   -0.3796 C   0  0  0  0  0  0  0  0  0  0  0  0
    4.0109    1.3502   -1.1580 C   0  0  0  0  0  0  0  0  0  0  0  0
    4.7723    0.1826   -1.1863 C   0  0  0  0  0  0  0  0  0  0  0  0
    4.3744   -0.9151   -0.4240 C   0  0  0  0  0  0  0  0  0  0  0  0
    3.2205   -0.8455    0.3543 C   0  0  0  0  0  0  0  0  0  0  0  0
    0.8139   -1.4291   -0.7256 H   0  0  0  0  0  0  0  0  0  0  0  0
    0.8171   -1.9022    2.0416 H   0  0  0  0  0  0  0  0  0  0  0  0
   -1.5192   -2.0243    2.5163 H   0  0  0  0  0  0  0  0  0  0  0  0
   -1.4056   -0.2627    2.5604 H   0  0  0  0  0  0  0  0  0  0  0  0
   -3.9566   -0.2737    1.3127 H   0  0  0  0  0  0  0  0  0  0  0  0
   -4.9627   -0.3757   -0.9619 H   0  0  0  0  0  0  0  0  0  0  0  0
   -3.6649   -1.2782   -2.8721 H   0  0  0  0  0  0  0  0  0  0  0  0
   -1.3035   -2.0396   -2.5381 H   0  0  0  0  0  0  0  0  0  0  0  0
    1.2653   -3.5650    0.1601 H   0  0  0  0  0  0  0  0  0  0  0  0
   -0.3158   -3.8203    0.5270 H   0  0  0  0  0  0  0  0  0  0  0  0
    0.2853    0.7642   -1.4229 H   0  0  0  0  0  0  0  0  0  0  0  0
   -1.5620    1.9856   -2.5191 H   0  0  0  0  0  0  0  0  0  0  0  0
   -3.1073    3.3970   -1.1724 H   0  0  0  0  0  0  0  0  0  0  0  0
   -2.7673    3.6055    1.2866 H   0  0  0  0  0  0  0  0  0  0  0  0
   -0.9109    2.3756    2.3887 H   0  0  0  0  0  0  0  0  0  0  0  0
    2.2685    2.3398   -0.3679 H   0  0  0  0  0  0  0  0  0  0  0  0
    4.3155    2.2165   -1.7478 H   0  0  0  0  0  0  0  0  0  0  0  0
    5.6739    0.1296   -1.7982 H   0  0  0  0  0  0  0  0  0  0  0  0
    4.9659   -1.8322   -0.4347 H   0  0  0  0  0  0  0  0  0  0  0  0
    2.9271   -1.7135    0.9510 H   0  0  0  0  0  0  0  0  0  0  0  0
  1  2  1  0  0  0  0
  1  9  1  0  0  0  0
  1 10  1  0  0  0  0
  1 24  1  6  0  0  0
  2  3  1  0  0  0  0
  2 11  1  0  0  0  0
  2 25  1  1  0  0  0
  3  4  1  0  0  0  0
  3 26  1  0  0  0  0
  3 27  1  0  0  0  0
  4  5  2  0  0  0  0
  4  9  1  0  0  0  0
  5  6  1  0  0  0  0
  5 28  1  0  0  0  0
  6  7  2  0  0  0  0
  6 29  1  0  0  0  0
  7  8  1  0  0  0  0
  7 30  1  0  0  0  0
  8  9  2  0  0  0  0
  8 31  1  0  0  0  0
 10 32  1  0  0  0  0
 10 33  1  0  0  0  0
 11 12  1  0  0  0  0
 11 18  1  0  0  0  0
 12 13  2  0  0  0  0
 12 17  1  0  0  0  0
 13 14  1  0  0  0  0
 13 34  1  0  0  0  0
 14 15  2  0  0  0  0
 14 35  1  0  0  0  0
 15 16  1  0  0  0  0
 15 36  1  0  0  0  0
 16 17  2  0  0  0  0
 16 37  1  0  0  0  0
 17 38  1  0  0  0  0
 18 19  2  0  0  0  0
 18 23  1  0  0  0  0
 19 20  1  0  0  0  0
 19 39  1  0  0  0  0
 20 21  2  0  0  0  0
 20 40  1  0  0  0  0
 21 22  1  0  0  0  0
 21 41  1  0  0  0  0
 22 23  2  0  0  0  0
 22 42  1  0  0  0  0
 23 43  1  0  0  0  0
M  END
$$$$
