Title Card Required
 OpenBabel03192317413D

 89 95  0  0  1  0  0  0  0  0999 V2000
    2.2106    1.2795   -0.4304 N   0  0  0  0  0  0  0  0  0  0  0  0
    2.2671    0.8513   -1.7901 C   0  0  0  0  0  0  0  0  0  0  0  0
    3.0803   -0.2385   -2.1558 C   0  0  0  0  0  0  0  0  0  0  0  0
    4.0222   -0.8684   -1.2269 C   0  0  0  0  0  0  0  0  0  0  0  0
    4.6581   -0.3003   -0.1826 C   0  0  0  0  0  0  0  0  0  0  0  0
    4.5481    1.0797    0.3045 C   0  0  0  0  0  0  0  0  0  0  0  0
    3.3779    1.8492    0.1553 C   0  0  0  0  0  0  0  0  0  0  0  0
    2.9855   -0.7281   -3.4680 C   0  0  0  0  0  3  0  0  0  0  0  0
    2.1342   -0.1411   -4.3982 C   0  0  0  0  0  0  0  0  0  0  0  0
    1.3634    0.9635   -4.0320 C   0  0  0  0  0  3  0  0  0  0  0  0
    1.4369    1.4607   -2.7326 C   0  0  0  0  0  2  0  0  0  0  0  0
    3.3289    3.1585    0.6373 C   0  0  0  0  0  0  0  0  0  0  0  0
    4.4260    3.7160    1.2883 C   0  0  0  0  0  0  0  0  0  0  0  0
    5.5883    2.9626    1.4508 C   0  0  0  0  0  0  0  0  0  0  0  0
    5.6422    1.6606    0.9653 C   0  0  0  0  0  0  0  0  0  0  0  0
    0.7436   -0.7102   -0.0486 O   0  0  0  0  0  0  0  0  0  0  0  0
    0.9304    0.8198    0.5865 P   0  0  2  0  0  0  0  0  0  0  0  0
   -0.3037    1.5530   -0.2886 O   0  0  0  0  0  0  0  0  0  0  0  0
   -1.6739    1.3826    0.0710 C   0  0  0  0  0  0  0  0  0  0  0  0
   -2.0008   -0.1249   -0.0889 C   0  0  1  0  0  0  0  0  0  0  0  0
   -1.4081   -1.0988    0.9521 C   0  0  2  0  0  0  0  0  0  0  0  0
   -0.0553   -1.7350    0.5172 C   0  0  1  0  0  0  0  0  0  0  0  0
   -2.4311   -2.0462    1.1452 O   0  0  0  0  0  0  0  0  0  0  0  0
   -3.5737   -1.7045    0.3569 C   0  0  0  0  0  0  0  0  0  0  0  0
   -3.3849   -0.3469    0.0242 O   0  0  0  0  0  0  0  0  0  0  0  0
   -0.2557   -2.7672   -0.5910 C   0  0  0  0  0  0  0  0  0  0  0  0
   -0.0186   -2.4251   -1.9272 C   0  0  0  0  0  3  0  0  0  0  0  0
   -0.2613   -3.3512   -2.9431 C   0  0  0  0  0  3  0  0  0  0  0  0
   -0.7341   -4.6254   -2.6363 C   0  0  0  0  0  0  0  0  0  0  0  0
   -0.9527   -4.9755   -1.3035 C   0  0  0  0  0  0  0  0  0  0  0  0
   -0.7136   -4.0535   -0.2876 C   0  0  0  0  0  0  0  0  0  0  0  0
    0.6692   -2.3505    1.7147 C   0  0  0  0  0  0  0  0  0  0  0  0
    2.0637   -2.4512    1.6726 C   0  0  0  0  0  0  0  0  0  0  0  0
    2.7615   -3.0237    2.7322 C   0  0  0  0  0  0  0  0  0  0  0  0
    2.0740   -3.5090    3.8451 C   0  0  0  0  0  0  0  0  0  0  0  0
    0.6855   -3.4121    3.8912 C   0  0  0  0  0  0  0  0  0  0  0  0
   -0.0169   -2.8328    2.8330 C   0  0  0  0  0  0  0  0  0  0  0  0
   -2.4839    2.1294   -0.9948 C   0  0  0  0  0  0  0  0  0  0  0  0
   -2.1312    1.9605   -2.3393 C   0  0  0  0  0  0  0  0  0  0  0  0
   -2.8556    2.5909   -3.3468 C   0  0  0  0  0  0  0  0  0  0  0  0
   -3.9480    3.3974   -3.0247 C   0  0  0  0  0  0  0  0  0  0  0  0
   -4.3081    3.5627   -1.6903 C   0  0  0  0  0  0  0  0  0  0  0  0
   -3.5806    2.9325   -0.6793 C   0  0  0  0  0  0  0  0  0  0  0  0
   -1.9173    1.9729    1.4631 C   0  0  0  0  0  0  0  0  0  0  0  0
   -1.1962    3.1196    1.8192 C   0  0  0  0  0  0  0  0  0  0  0  0
   -1.4039    3.7422    3.0464 C   0  0  0  0  0  0  0  0  0  0  0  0
   -2.3417    3.2289    3.9423 C   0  0  0  0  0  0  0  0  0  0  0  0
   -3.0701    2.0947    3.5940 C   0  0  0  0  0  0  0  0  0  0  0  0
   -2.8649    1.4726    2.3613 C   0  0  0  0  0  0  0  0  0  0  0  0
   -3.6479   -2.5661   -0.8958 C   0  0  0  0  0  0  0  0  0  0  0  0
   -4.8149   -1.8310    1.2156 C   0  0  0  0  0  0  0  0  0  0  0  0
   -1.6393   -0.4007   -1.0961 H   0  0  0  0  0  0  0  0  0  0  0  0
   -1.2223   -0.5730    1.9069 H   0  0  0  0  0  0  0  0  0  0  0  0
    4.3007   -1.8960   -1.4789 H   0  0  0  0  0  0  0  0  0  0  0  0
    5.4073   -0.9091    0.3323 H   0  0  0  0  0  0  0  0  0  0  0  0
    3.5952   -1.5882   -3.7523 H   0  0  0  0  0  0  0  0  0  0  0  0
    2.0744   -0.5419   -5.4112 H   0  0  0  0  0  0  0  0  0  0  0  0
    0.6980    1.4362   -4.7567 H   0  0  0  0  0  0  0  0  0  0  0  0
    0.8283    2.3060   -2.4128 H   0  0  0  0  0  0  0  0  0  0  0  0
    2.4064    3.7247    0.4990 H   0  0  0  0  0  0  0  0  0  0  0  0
    4.3710    4.7356    1.6720 H   0  0  0  0  0  0  0  0  0  0  0  0
    6.4526    3.3894    1.9612 H   0  0  0  0  0  0  0  0  0  0  0  0
    6.5493    1.0673    1.0985 H   0  0  0  0  0  0  0  0  0  0  0  0
    0.3644   -1.4323   -2.1709 H   0  0  0  0  0  0  0  0  0  0  0  0
   -0.0715   -3.0695   -3.9805 H   0  0  0  0  0  0  0  0  0  0  0  0
   -0.9213   -5.3489   -3.4314 H   0  0  0  0  0  0  0  0  0  0  0  0
   -1.3112   -5.9751   -1.0521 H   0  0  0  0  0  0  0  0  0  0  0  0
   -0.8885   -4.3305    0.7527 H   0  0  0  0  0  0  0  0  0  0  0  0
    2.5962   -2.0606    0.8041 H   0  0  0  0  0  0  0  0  0  0  0  0
    3.8502   -3.0895    2.6897 H   0  0  0  0  0  0  0  0  0  0  0  0
    2.6200   -3.9590    4.6758 H   0  0  0  0  0  0  0  0  0  0  0  0
    0.1397   -3.7846    4.7596 H   0  0  0  0  0  0  0  0  0  0  0  0
   -1.1053   -2.7643    2.8766 H   0  0  0  0  0  0  0  0  0  0  0  0
   -1.2744    1.3326   -2.5915 H   0  0  0  0  0  0  0  0  0  0  0  0
   -2.5666    2.4519   -4.3900 H   0  0  0  0  0  0  0  0  0  0  0  0
   -4.5155    3.8943   -3.8132 H   0  0  0  0  0  0  0  0  0  0  0  0
   -5.1616    4.1895   -1.4269 H   0  0  0  0  0  0  0  0  0  0  0  0
   -3.8714    3.0746    0.3619 H   0  0  0  0  0  0  0  0  0  0  0  0
   -0.4674    3.5244    1.1153 H   0  0  0  0  0  0  0  0  0  0  0  0
   -0.8296    4.6332    3.3050 H   0  0  0  0  0  0  0  0  0  0  0  0
   -2.5040    3.7127    4.9067 H   0  0  0  0  0  0  0  0  0  0  0  0
   -3.8100    1.6866    4.2846 H   0  0  0  0  0  0  0  0  0  0  0  0
   -3.4576    0.6020    2.0885 H   0  0  0  0  0  0  0  0  0  0  0  0
   -3.6944   -3.6267   -0.6162 H   0  0  0  0  0  0  0  0  0  0  0  0
   -4.5477   -2.2983   -1.4663 H   0  0  0  0  0  0  0  0  0  0  0  0
   -2.7649   -2.4222   -1.5334 H   0  0  0  0  0  0  0  0  0  0  0  0
   -4.6919   -1.2486    2.1375 H   0  0  0  0  0  0  0  0  0  0  0  0
   -5.6879   -1.4597    0.6633 H   0  0  0  0  0  0  0  0  0  0  0  0
   -4.9781   -2.8836    1.4809 H   0  0  0  0  0  0  0  0  0  0  0  0
  1  2  1  0  0  0  0
  1  7  1  0  0  0  0
  2  3  2  0  0  0  0
  2 11  1  0  0  0  0
  3  4  1  0  0  0  0
  3  8  1  0  0  0  0
  4  5  2  0  0  0  0
  4 54  1  0  0  0  0
  5  6  1  0  0  0  0
  5 55  1  0  0  0  0
  6  7  2  0  0  0  0
  6 15  1  0  0  0  0
  7 12  1  0  0  0  0
  8  9  1  0  0  0  0
  8 56  1  0  0  0  0
  9 10  2  0  0  0  0
  9 57  1  0  0  0  0
 10 58  1  0  0  0  0
 11 59  1  0  0  0  0
 12 13  2  0  0  0  0
 12 60  1  0  0  0  0
 13 14  1  0  0  0  0
 13 61  1  0  0  0  0
 14 15  2  0  0  0  0
 14 62  1  0  0  0  0
 15 63  1  0  0  0  0
 16 17  1  0  0  0  0
 16 22  1  0  0  0  0
 17  1  1  6  0  0  0
 17 18  1  0  0  0  0
 18 19  1  0  0  0  0
 19 20  1  0  0  0  0
 19 38  1  0  0  0  0
 19 44  1  0  0  0  0
 20 21  1  0  0  0  0
 20 25  1  0  0  0  0
 20 52  1  6  0  0  0
 21 22  1  0  0  0  0
 21 23  1  0  0  0  0
 21 53  1  1  0  0  0
 22 26  1  6  0  0  0
 22 32  1  0  0  0  0
 23 24  1  0  0  0  0
 24 25  1  0  0  0  0
 24 50  1  0  0  0  0
 24 51  1  0  0  0  0
 26 27  2  0  0  0  0
 26 31  1  0  0  0  0
 27 64  1  0  0  0  0
 28 29  2  0  0  0  0
 28 65  1  0  0  0  0
 29 30  1  0  0  0  0
 29 66  1  0  0  0  0
 30 31  2  0  0  0  0
 30 67  1  0  0  0  0
 31 68  1  0  0  0  0
 32 33  2  0  0  0  0
 32 37  1  0  0  0  0
 33 34  1  0  0  0  0
 33 69  1  0  0  0  0
 34 35  2  0  0  0  0
 34 70  1  0  0  0  0
 35 36  1  0  0  0  0
 35 71  1  0  0  0  0
 36 37  2  0  0  0  0
 36 72  1  0  0  0  0
 37 73  1  0  0  0  0
 38 39  2  0  0  0  0
 38 43  1  0  0  0  0
 39 40  1  0  0  0  0
 39 74  1  0  0  0  0
 40 41  2  0  0  0  0
 40 75  1  0  0  0  0
 41 42  1  0  0  0  0
 41 76  1  0  0  0  0
 42 43  2  0  0  0  0
 42 77  1  0  0  0  0
 43 78  1  0  0  0  0
 44 45  2  0  0  0  0
 44 49  1  0  0  0  0
 45 46  1  0  0  0  0
 45 79  1  0  0  0  0
 46 47  2  0  0  0  0
 46 80  1  0  0  0  0
 47 48  1  0  0  0  0
 47 81  1  0  0  0  0
 48 49  2  0  0  0  0
 48 82  1  0  0  0  0
 49 83  1  0  0  0  0
 50 84  1  0  0  0  0
 50 85  1  0  0  0  0
 50 86  1  0  0  0  0
 51 87  1  0  0  0  0
 51 88  1  0  0  0  0
 51 89  1  0  0  0  0
M  END
$$$$
