Title Card Required
 OpenBabel03192317543D

 68 74  0  0  1  0  0  0  0  0999 V2000
    3.0081    0.6195   -0.6714 C   0  0  2  0  0  0  0  0  0  0  0  0
    2.8532    0.0977    0.7771 C   0  0  2  0  0  0  0  0  0  0  0  0
    3.3663   -1.3194    0.9690 C   0  0  0  0  0  0  0  0  0  0  0  0
    3.8025   -2.1301   -0.0834 C   0  0  0  0  0  0  0  0  0  0  0  0
    4.2726   -3.4241    0.1539 C   0  0  0  0  0  0  0  0  0  0  0  0
    4.3250   -3.9326    1.4480 C   0  0  0  0  0  0  0  0  0  0  0  0
    3.9186   -3.1248    2.5115 C   0  0  0  0  0  0  0  0  0  0  0  0
    3.4529   -1.8371    2.2721 C   0  0  0  0  0  0  0  0  0  0  0  0
    2.8930    2.1367   -0.7944 C   0  0  0  0  0  0  0  0  0  0  0  0
    3.1033    3.0054    0.2820 C   0  0  0  0  0  0  0  0  0  0  0  0
    3.0164    4.3871    0.1180 C   0  0  0  0  0  0  0  0  0  0  0  0
    2.7205    4.9315   -1.1293 C   0  0  0  0  0  0  0  0  0  0  0  0
    2.5202    4.0774   -2.2121 C   0  0  0  0  0  0  0  0  0  0  0  0
    2.6085    2.6974   -2.0459 C   0  0  0  0  0  0  0  0  0  0  0  0
    1.2070    0.3092    1.7484 P   0  0  0  0  0  0  0  0  0  0  0  0
    0.2164   -1.2739    1.4521 C   0  0  0  0  0  0  0  0  0  0  0  0
   -0.3812   -1.4731    0.0911 C   0  0  0  0  0  0  0  0  0  0  0  0
   -1.4375   -0.6823   -0.3340 C   0  0  0  0  0  0  0  0  0  0  0  0
   -2.0495    0.2868    0.6258 C   0  0  0  0  0  0  0  0  0  0  0  0
   -1.2846    1.3265    1.1376 C   0  0  0  0  0  0  0  0  0  0  0  0
    0.1543    1.4866    0.7322 C   0  0  0  0  0  0  0  0  0  0  0  0
    0.1432   -2.4725   -0.7761 C   0  0  0  0  0  0  0  0  0  0  0  0
   -0.3404   -2.6333   -2.0493 C   0  0  0  0  0  0  0  0  0  0  0  0
   -1.3691   -1.7867   -2.5422 C   0  0  0  0  0  0  0  0  0  0  0  0
   -1.8537   -1.9023   -3.8734 C   0  0  0  0  0  0  0  0  0  0  0  0
   -2.8385   -1.0665   -4.3387 C   0  0  0  0  0  0  0  0  0  0  0  0
   -3.3809   -0.0720   -3.4882 C   0  0  0  0  0  0  0  0  0  0  0  0
   -2.9391    0.0585   -2.1938 C   0  0  0  0  0  0  0  0  0  0  0  0
   -1.9243   -0.7979   -1.6780 C   0  0  0  0  0  0  0  0  0  0  0  0
   -1.8490    2.2240    2.0826 C   0  0  0  0  0  0  0  0  0  0  0  0
   -3.1453    2.0922    2.4943 C   0  0  0  0  0  0  0  0  0  0  0  0
   -3.9530    1.0322    2.0063 C   0  0  0  0  0  0  0  0  0  0  0  0
   -5.2946    0.8647    2.4436 C   0  0  0  0  0  0  0  0  0  0  0  0
   -6.0565   -0.1828    1.9928 C   0  0  0  0  0  0  0  0  0  0  0  0
   -5.5020   -1.1180    1.0854 C   0  0  0  0  0  0  0  0  0  0  0  0
   -4.2109   -0.9785    0.6387 C   0  0  0  0  0  0  0  0  0  0  0  0
   -3.3991    0.1071    1.0735 C   0  0  0  0  0  0  0  0  0  0  0  0
    2.2020   -0.0282   -1.6953 N   0  0  0  0  0  0  0  0  0  0  0  0
    4.0648    0.3996   -0.9227 H   0  0  0  0  0  0  0  0  0  0  0  0
    3.5306    0.7113    1.3917 H   0  0  0  0  0  0  0  0  0  0  0  0
    3.8025   -1.7605   -1.1105 H   0  0  0  0  0  0  0  0  0  0  0  0
    4.6065   -4.0333   -0.6878 H   0  0  0  0  0  0  0  0  0  0  0  0
    4.6915   -4.9438    1.6300 H   0  0  0  0  0  0  0  0  0  0  0  0
    3.9710   -3.4985    3.5354 H   0  0  0  0  0  0  0  0  0  0  0  0
    3.1415   -1.2126    3.1141 H   0  0  0  0  0  0  0  0  0  0  0  0
    3.3227    2.6193    1.2788 H   0  0  0  0  0  0  0  0  0  0  0  0
    3.1789    5.0410    0.9766 H   0  0  0  0  0  0  0  0  0  0  0  0
    2.6486    6.0126   -1.2566 H   0  0  0  0  0  0  0  0  0  0  0  0
    2.2935    4.4870   -3.1980 H   0  0  0  0  0  0  0  0  0  0  0  0
    2.4582    2.0322   -2.8966 H   0  0  0  0  0  0  0  0  0  0  0  0
    0.8635   -2.1165    1.7303 H   0  0  0  0  0  0  0  0  0  0  0  0
   -0.5783   -1.2113    2.2109 H   0  0  0  0  0  0  0  0  0  0  0  0
    0.2645    1.2991   -0.3383 H   0  0  0  0  0  0  0  0  0  0  0  0
    0.5008    2.5091    0.9282 H   0  0  0  0  0  0  0  0  0  0  0  0
    0.9481   -3.1135   -0.4061 H   0  0  0  0  0  0  0  0  0  0  0  0
    0.0655   -3.4063   -2.7053 H   0  0  0  0  0  0  0  0  0  0  0  0
   -1.4215   -2.6676   -4.5216 H   0  0  0  0  0  0  0  0  0  0  0  0
   -3.2014   -1.1615   -5.3631 H   0  0  0  0  0  0  0  0  0  0  0  0
   -4.1541    0.5985   -3.8659 H   0  0  0  0  0  0  0  0  0  0  0  0
   -3.3600    0.8288   -1.5465 H   0  0  0  0  0  0  0  0  0  0  0  0
   -1.2272    3.0330    2.4710 H   0  0  0  0  0  0  0  0  0  0  0  0
   -3.5737    2.7950    3.2117 H   0  0  0  0  0  0  0  0  0  0  0  0
   -5.7044    1.5865    3.1534 H   0  0  0  0  0  0  0  0  0  0  0  0
   -7.0847   -0.3033    2.3368 H   0  0  0  0  0  0  0  0  0  0  0  0
   -6.1054   -1.9597    0.7420 H   0  0  0  0  0  0  0  0  0  0  0  0
   -3.7942   -1.7091   -0.0557 H   0  0  0  0  0  0  0  0  0  0  0  0
    2.0648   -1.0078   -1.4954 H   0  0  0  0  0  0  0  0  0  0  0  0
    1.2726    0.3725   -1.7635 H   0  0  0  0  0  0  0  0  0  0  0  0
  1  2  1  0  0  0  0
  1  9  1  0  0  0  0
  1 38  1  0  0  0  0
  1 39  1  6  0  0  0
  2  3  1  0  0  0  0
  2 15  1  0  0  0  0
  2 40  1  1  0  0  0
  3  4  2  0  0  0  0
  3  8  1  0  0  0  0
  4  5  1  0  0  0  0
  4 41  1  0  0  0  0
  5  6  2  0  0  0  0
  5 42  1  0  0  0  0
  6  7  1  0  0  0  0
  6 43  1  0  0  0  0
  7  8  2  0  0  0  0
  7 44  1  0  0  0  0
  8 45  1  0  0  0  0
  9 10  2  0  0  0  0
  9 14  1  0  0  0  0
 10 11  1  0  0  0  0
 10 46  1  0  0  0  0
 11 12  2  0  0  0  0
 11 47  1  0  0  0  0
 12 13  1  0  0  0  0
 12 48  1  0  0  0  0
 13 14  2  0  0  0  0
 13 49  1  0  0  0  0
 14 50  1  0  0  0  0
 15 16  1  0  0  0  0
 15 21  1  0  0  0  0
 16 17  1  0  0  0  0
 16 51  1  0  0  0  0
 16 52  1  0  0  0  0
 17 18  2  0  0  0  0
 17 22  1  0  0  0  0
 18 19  1  0  0  0  0
 18 29  1  0  0  0  0
 19 20  2  0  0  0  0
 19 37  1  0  0  0  0
 20 21  1  0  0  0  0
 20 30  1  0  0  0  0
 21 53  1  0  0  0  0
 21 54  1  0  0  0  0
 22 23  2  0  0  0  0
 22 55  1  0  0  0  0
 23 24  1  0  0  0  0
 23 56  1  0  0  0  0
 24 25  2  0  0  0  0
 24 29  1  0  0  0  0
 25 26  1  0  0  0  0
 25 57  1  0  0  0  0
 26 27  2  0  0  0  0
 26 58  1  0  0  0  0
 27 28  1  0  0  0  0
 27 59  1  0  0  0  0
 28 29  2  0  0  0  0
 28 60  1  0  0  0  0
 30 31  2  0  0  0  0
 30 61  1  0  0  0  0
 31 32  1  0  0  0  0
 31 62  1  0  0  0  0
 32 33  2  0  0  0  0
 32 37  1  0  0  0  0
 33 34  1  0  0  0  0
 33 63  1  0  0  0  0
 34 35  2  0  0  0  0
 34 64  1  0  0  0  0
 35 36  1  0  0  0  0
 35 65  1  0  0  0  0
 36 37  2  0  0  0  0
 36 66  1  0  0  0  0
 38 67  1  0  0  0  0
 38 68  1  0  0  0  0
M  END
$$$$
