Title Card Required
 OpenBabel03192317523D

 42 44  0  0  1  0  0  0  0  0999 V2000
    1.7125    0.3646    0.5650 C   0  0  2  0  0  0  0  0  0  0  0  0
    0.5509   -0.6418    0.4584 C   0  0  0  0  0  0  0  0  0  0  0  0
    3.0331   -0.2290    0.0721 C   0  0  0  0  0  0  0  0  0  0  0  0
    4.2428    0.3125    0.5262 C   0  0  0  0  0  0  0  0  0  0  0  0
    5.4632   -0.1792    0.0684 C   0  0  0  0  0  0  0  0  0  0  0  0
    5.5009   -1.2243   -0.8538 C   0  0  0  0  0  0  0  0  0  0  0  0
    4.3051   -1.7729   -1.3107 C   0  0  0  0  0  0  0  0  0  0  0  0
    3.0836   -1.2809   -0.8502 C   0  0  0  0  0  0  0  0  0  0  0  0
   -1.0220   -0.0059    1.2401 P   0  0  0  0  0  0  0  0  0  0  0  0
   -1.2896    1.4810    0.1718 C   0  0  0  0  0  0  0  0  0  0  0  0
   -1.4873    1.3894   -1.2133 C   0  0  0  0  0  0  0  0  0  0  0  0
   -1.6291    2.5394   -1.9846 C   0  0  0  0  0  0  0  0  0  0  0  0
   -1.5757    3.7984   -1.3816 C   0  0  0  0  0  0  0  0  0  0  0  0
   -1.3875    3.9017   -0.0060 C   0  0  0  0  0  0  0  0  0  0  0  0
   -1.2498    2.7463    0.7665 C   0  0  0  0  0  0  0  0  0  0  0  0
   -2.2560   -1.1627    0.5066 C   0  0  0  0  0  0  0  0  0  0  0  0
   -1.9346   -2.4624    0.0980 C   0  0  0  0  0  0  0  0  0  0  0  0
   -2.9251   -3.3237   -0.3785 C   0  0  0  0  0  0  0  0  0  0  0  0
   -4.2483   -2.8985   -0.4569 C   0  0  0  0  0  0  0  0  0  0  0  0
   -4.5806   -1.6054   -0.0488 C   0  0  0  0  0  0  0  0  0  0  0  0
   -3.5951   -0.7496    0.4339 C   0  0  0  0  0  0  0  0  0  0  0  0
    1.8922    0.9415    1.8896 N   0  0  0  0  0  0  0  0  0  0  0  0
    1.4734    1.2082   -0.1074 H   0  0  0  0  0  0  0  0  0  0  0  0
    0.3464   -0.8955   -0.5931 H   0  0  0  0  0  0  0  0  0  0  0  0
    0.8311   -1.5728    0.9806 H   0  0  0  0  0  0  0  0  0  0  0  0
    4.2033    1.1237    1.2528 H   0  0  0  0  0  0  0  0  0  0  0  0
    6.3933    0.2574    0.4372 H   0  0  0  0  0  0  0  0  0  0  0  0
    6.4564   -1.6108   -1.2121 H   0  0  0  0  0  0  0  0  0  0  0  0
    4.3187   -2.5944   -2.0291 H   0  0  0  0  0  0  0  0  0  0  0  0
    2.1641   -1.7316   -1.2242 H   0  0  0  0  0  0  0  0  0  0  0  0
   -1.5428    0.4060   -1.6884 H   0  0  0  0  0  0  0  0  0  0  0  0
   -1.7830    2.4561   -3.0617 H   0  0  0  0  0  0  0  0  0  0  0  0
   -1.6848    4.6994   -1.9875 H   0  0  0  0  0  0  0  0  0  0  0  0
   -1.3519    4.8824    0.4710 H   0  0  0  0  0  0  0  0  0  0  0  0
   -1.1190    2.8282    1.8490 H   0  0  0  0  0  0  0  0  0  0  0  0
   -0.9045   -2.8191    0.1471 H   0  0  0  0  0  0  0  0  0  0  0  0
   -2.6547   -4.3331   -0.6933 H   0  0  0  0  0  0  0  0  0  0  0  0
   -5.0199   -3.5713   -0.8339 H   0  0  0  0  0  0  0  0  0  0  0  0
   -5.6148   -1.2617   -0.1059 H   0  0  0  0  0  0  0  0  0  0  0  0
   -3.8654    0.2618    0.7494 H   0  0  0  0  0  0  0  0  0  0  0  0
    1.1063    1.5412    2.1305 H   0  0  0  0  0  0  0  0  0  0  0  0
    1.9321    0.2057    2.5949 H   0  0  0  0  0  0  0  0  0  0  0  0
  1  2  1  0  0  0  0
  1  3  1  0  0  0  0
  1 22  1  0  0  0  0
  1 23  1  6  0  0  0
  2  9  1  0  0  0  0
  2 24  1  0  0  0  0
  2 25  1  0  0  0  0
  3  4  2  0  0  0  0
  3  8  1  0  0  0  0
  4  5  1  0  0  0  0
  4 26  1  0  0  0  0
  5  6  2  0  0  0  0
  5 27  1  0  0  0  0
  6  7  1  0  0  0  0
  6 28  1  0  0  0  0
  7  8  2  0  0  0  0
  7 29  1  0  0  0  0
  8 30  1  0  0  0  0
  9 10  1  0  0  0  0
  9 16  1  0  0  0  0
 10 11  2  0  0  0  0
 10 15  1  0  0  0  0
 11 12  1  0  0  0  0
 11 31  1  0  0  0  0
 12 13  2  0  0  0  0
 12 32  1  0  0  0  0
 13 14  1  0  0  0  0
 13 33  1  0  0  0  0
 14 15  2  0  0  0  0
 14 34  1  0  0  0  0
 15 35  1  0  0  0  0
 16 17  2  0  0  0  0
 16 21  1  0  0  0  0
 17 18  1  0  0  0  0
 17 36  1  0  0  0  0
 18 19  2  0  0  0  0
 18 37  1  0  0  0  0
 19 20  1  0  0  0  0
 19 38  1  0  0  0  0
 20 21  2  0  0  0  0
 20 39  1  0  0  0  0
 21 40  1  0  0  0  0
 22 41  1  0  0  0  0
 22 42  1  0  0  0  0
M  END
$$$$
