Title Card Required
 OpenBabel03192317473D

 39 42  0  0  1  0  0  0  0  0999 V2000
    0.8557   -1.1966   -0.3731 O   0  0  0  0  0  0  0  0  0  0  0  0
    1.6386   -0.1405   -0.6601 C   0  0  0  0  0  0  0  0  0  0  0  0
    1.1362    0.8270   -1.3132 N   0  0  0  0  0  0  0  0  0  0  0  0
   -0.2763    0.5168   -1.5012 C   0  0  1  0  0  0  0  0  0  0  0  0
   -0.3480   -1.0123   -1.1216 C   0  0  2  0  0  0  0  0  0  0  0  0
    3.0362   -0.1766   -0.1590 C   0  0  0  0  0  0  0  0  0  0  0  0
    3.8640    0.9255   -0.4032 C   0  0  0  0  0  0  0  0  0  0  0  0
    5.1688    0.8806    0.0734 C   0  0  0  0  0  0  0  0  0  0  0  0
    5.5879   -0.2515    0.7697 C   0  0  0  0  0  0  0  0  0  0  0  0
    4.6771   -1.2925    0.9570 C   0  0  0  0  0  0  0  0  0  0  0  0
    3.4282   -1.2617    0.5038 N   0  0  0  0  0  0  0  0  0  0  0  0
   -1.5548   -1.4545   -0.3464 C   0  0  0  0  0  0  0  0  0  0  0  0
   -1.6183   -1.2783    1.0385 C   0  0  0  0  0  0  0  0  0  0  0  0
   -2.7871   -1.5869    1.7288 C   0  0  0  0  0  0  0  0  0  0  0  0
   -3.9006   -2.0753    1.0436 C   0  0  0  0  0  0  0  0  0  0  0  0
   -3.8358   -2.2672   -0.3351 C   0  0  0  0  0  0  0  0  0  0  0  0
   -2.6637   -1.9611   -1.0258 C   0  0  0  0  0  0  0  0  0  0  0  0
   -1.1683    1.4052   -0.6543 C   0  0  0  0  0  0  0  0  0  0  0  0
   -2.5294    1.5016   -0.9632 C   0  0  0  0  0  0  0  0  0  0  0  0
   -3.3952    2.2193   -0.1435 C   0  0  0  0  0  0  0  0  0  0  0  0
   -2.9054    2.8640    0.9932 C   0  0  0  0  0  0  0  0  0  0  0  0
   -1.5478    2.7906    1.2954 C   0  0  0  0  0  0  0  0  0  0  0  0
   -0.6824    2.0653    0.4756 C   0  0  0  0  0  0  0  0  0  0  0  0
   -0.5578    0.6460   -2.5563 H   0  0  0  0  0  0  0  0  0  0  0  0
   -0.2589   -1.6109   -2.0434 H   0  0  0  0  0  0  0  0  0  0  0  0
    3.4641    1.7764   -0.9546 H   0  0  0  0  0  0  0  0  0  0  0  0
    5.8503    1.7160   -0.0947 H   0  0  0  0  0  0  0  0  0  0  0  0
    6.6016   -0.3322    1.1632 H   0  0  0  0  0  0  0  0  0  0  0  0
    4.9746   -2.1942    1.5008 H   0  0  0  0  0  0  0  0  0  0  0  0
   -0.7431   -0.8972    1.5670 H   0  0  0  0  0  0  0  0  0  0  0  0
   -2.8305   -1.4441    2.8096 H   0  0  0  0  0  0  0  0  0  0  0  0
   -4.8159   -2.3144    1.5871 H   0  0  0  0  0  0  0  0  0  0  0  0
   -4.6981   -2.6619   -0.8747 H   0  0  0  0  0  0  0  0  0  0  0  0
   -2.6119   -2.1141   -2.1070 H   0  0  0  0  0  0  0  0  0  0  0  0
   -2.9183    0.9918   -1.8482 H   0  0  0  0  0  0  0  0  0  0  0  0
   -4.4562    2.2763   -0.3915 H   0  0  0  0  0  0  0  0  0  0  0  0
   -3.5813    3.4283    1.6376 H   0  0  0  0  0  0  0  0  0  0  0  0
   -1.1557    3.3015    2.1764 H   0  0  0  0  0  0  0  0  0  0  0  0
    0.3820    2.0144    0.7102 H   0  0  0  0  0  0  0  0  0  0  0  0
  1  2  1  0  0  0  0
  1  5  1  0  0  0  0
  2  3  2  0  0  0  0
  2  6  1  0  0  0  0
  3  4  1  0  0  0  0
  4  5  1  0  0  0  0
  4 18  1  0  0  0  0
  4 24  1  6  0  0  0
  5 12  1  0  0  0  0
  5 25  1  6  0  0  0
  6  7  2  0  0  0  0
  6 11  1  0  0  0  0
  7  8  1  0  0  0  0
  7 26  1  0  0  0  0
  8  9  2  0  0  0  0
  8 27  1  0  0  0  0
  9 10  1  0  0  0  0
  9 28  1  0  0  0  0
 10 11  2  0  0  0  0
 10 29  1  0  0  0  0
 12 13  2  0  0  0  0
 12 17  1  0  0  0  0
 13 14  1  0  0  0  0
 13 30  1  0  0  0  0
 14 15  2  0  0  0  0
 14 31  1  0  0  0  0
 15 16  1  0  0  0  0
 15 32  1  0  0  0  0
 16 17  2  0  0  0  0
 16 33  1  0  0  0  0
 17 34  1  0  0  0  0
 18 19  2  0  0  0  0
 18 23  1  0  0  0  0
 19 20  1  0  0  0  0
 19 35  1  0  0  0  0
 20 21  2  0  0  0  0
 20 36  1  0  0  0  0
 21 22  1  0  0  0  0
 21 37  1  0  0  0  0
 22 23  2  0  0  0  0
 22 38  1  0  0  0  0
 23 39  1  0  0  0  0
M  END
$$$$
