Title Card Required
 OpenBabel03192317563D

 19 20  0  0  1  0  0  0  0  0999 V2000
   -2.4032   -1.1605   -0.6415 N   0  0  0  0  0  0  0  0  0  0  0  0
   -1.8414    0.1483   -0.9283 C   0  0  0  0  0  0  0  0  0  0  0  0
   -0.4389    0.1191   -0.2897 C   0  0  2  0  0  0  0  0  0  0  0  0
   -0.6796   -0.6794    1.0158 C   0  0  0  0  0  0  0  0  0  0  0  0
   -2.0032   -1.4506    0.7332 C   0  0  0  0  0  0  0  0  0  0  0  0
    0.2144    1.4397   -0.0080 C   0  0  0  0  0  0  0  0  0  0  0  0
    1.4064    1.6457   -0.0473 O   0  0  0  0  0  0  0  0  0  0  0  0
   -0.6422    2.3978    0.3457 O   0  0  0  0  0  0  0  0  0  0  0  0
   -1.9807   -1.8435   -1.2669 H   0  0  0  0  0  0  0  0  0  0  0  0
   -2.4504    0.9265   -0.4416 H   0  0  0  0  0  0  0  0  0  0  0  0
   -1.8262    0.3530   -2.0071 H   0  0  0  0  0  0  0  0  0  0  0  0
    0.2533   -0.4441   -0.9312 H   0  0  0  0  0  0  0  0  0  0  0  0
    0.1775   -1.3335    1.2222 H   0  0  0  0  0  0  0  0  0  0  0  0
   -0.7995    0.0005    1.8719 H   0  0  0  0  0  0  0  0  0  0  0  0
   -1.9032   -2.5332    0.8844 H   0  0  0  0  0  0  0  0  0  0  0  0
   -2.7875   -1.0980    1.4201 H   0  0  0  0  0  0  0  0  0  0  0  0
   -0.1230    3.1923    0.5483 H   0  0  0  0  0  0  0  0  0  0  0  0
    2.4030    0.1150   -0.1301 H   0  0  0  0  0  0  0  0  0  0  0  0
    2.8375   -1.1190   -0.1297 Cl  0  0  0  0  0  0  0  0  0  0  0  0
  1  2  1  0  0  0  0
  1  5  1  0  0  0  0
  1  9  1  0  0  0  0
  2  3  1  0  0  0  0
  2 10  1  0  0  0  0
  2 11  1  0  0  0  0
  3  4  1  0  0  0  0
  3  6  1  1  0  0  0
  3 12  1  0  0  0  0
  4  5  1  0  0  0  0
  4 13  1  0  0  0  0
  4 14  1  0  0  0  0
  5 15  1  0  0  0  0
  5 16  1  0  0  0  0
  6  7  2  0  0  0  0
  6  8  1  0  0  0  0
  8 17  1  0  0  0  0
 12 18  1  0  0  0  0
 13 18  1  0  0  0  0
 18 19  1  0  0  0  0
M  END
$$$$
