Title Card Required
 OpenBabel03192317523D

 62 66  0  0  1  0  0  0  0  0999 V2000
    1.9130   -0.3161   -1.0993 C   0  0  0  0  0  0  0  0  0  0  0  0
    3.3332   -0.6415   -0.7743 C   0  0  0  0  0  0  0  0  0  0  0  0
    4.2911   -0.4340   -1.7710 C   0  0  0  0  0  0  0  0  0  0  0  0
    5.6309   -0.7100   -1.5251 C   0  0  0  0  0  0  0  0  0  0  0  0
    6.0030   -1.1938   -0.2704 C   0  0  0  0  0  0  0  0  0  0  0  0
    5.0591   -1.4061    0.7345 C   0  0  0  0  0  0  0  0  0  0  0  0
    3.7203   -1.1284    0.4774 C   0  0  0  0  0  0  0  0  0  0  0  0
    1.5552    0.1461   -2.1503 O   0  0  0  0  0  0  0  0  0  0  0  0
    1.0819   -0.5893   -0.0851 O   0  0  0  0  0  0  0  0  0  0  0  0
    7.6723   -1.5386    0.0469 Cl  0  0  0  0  0  0  0  0  0  0  0  0
   -0.3038   -0.2596   -0.2563 C   0  0  1  0  0  0  0  0  0  0  0  0
   -2.5248   -3.1247    2.1346 N   0  0  0  0  0  0  0  0  0  0  0  0
   -1.3193   -2.7451    2.4585 C   0  0  0  0  0  0  0  0  0  0  0  0
   -0.5607   -1.8027    1.7127 C   0  0  0  0  0  0  0  0  0  0  0  0
   -1.0999   -1.2243    0.5893 C   0  0  0  0  0  0  0  0  0  0  0  0
   -2.4310   -1.6035    0.2106 C   0  0  0  0  0  0  0  0  0  0  0  0
   -3.1121   -1.0600   -0.9028 C   0  0  0  0  0  0  0  0  0  0  0  0
   -4.3921   -1.4761   -1.2181 C   0  0  0  0  0  0  0  0  0  0  0  0
   -5.0420   -2.4574   -0.4225 C   0  0  0  0  0  0  0  0  0  0  0  0
   -4.3986   -2.9831    0.6714 C   0  0  0  0  0  0  0  0  0  0  0  0
   -3.0889   -2.5733    1.0254 C   0  0  0  0  0  0  0  0  0  0  0  0
   -4.9694   -0.9005   -2.2954 O   0  0  0  0  0  0  0  0  0  0  0  0
   -6.2734   -1.2756   -2.6522 C   0  0  0  0  0  0  0  0  0  0  0  0
   -1.7943    1.7763   -0.0906 N   0  0  2  0  0  0  0  0  0  0  0  0
   -0.4347    1.2511    0.0361 C   0  0  1  0  0  0  0  0  0  0  0  0
    0.2090    1.7151    1.3601 C   0  0  0  0  0  0  0  0  0  0  0  0
   -0.5732    2.9558    1.8272 C   0  0  1  0  0  0  0  0  0  0  0  0
   -0.7908    3.9393    0.6588 C   0  0  2  0  0  0  0  0  0  0  0  0
   -1.6788    3.2046   -0.3964 C   0  0  0  0  0  0  0  0  0  0  0  0
   -1.9528    2.4829    2.2970 C   0  0  0  0  0  0  0  0  0  0  0  0
   -2.5638    1.6340    1.1519 C   0  0  0  0  0  0  0  0  0  0  0  0
    0.5143    4.4861    0.0749 C   0  0  0  0  0  0  0  0  0  0  0  0
    0.2943    5.6533   -0.8818 C   0  0  0  0  0  0  0  0  0  0  0  0
   -0.0372    3.4627    2.6435 H   0  0  0  0  0  0  0  0  0  0  0  0
    3.9625   -0.0536   -2.7392 H   0  0  0  0  0  0  0  0  0  0  0  0
    6.3908   -0.5562   -2.2907 H   0  0  0  0  0  0  0  0  0  0  0  0
    5.3815   -1.7853    1.7040 H   0  0  0  0  0  0  0  0  0  0  0  0
    2.9678   -1.2874    1.2493 H   0  0  0  0  0  0  0  0  0  0  0  0
   -0.5616   -0.4088   -1.3133 H   0  0  0  0  0  0  0  0  0  0  0  0
   -0.8791   -3.1967    3.3541 H   0  0  0  0  0  0  0  0  0  0  0  0
    0.4570   -1.5639    2.0210 H   0  0  0  0  0  0  0  0  0  0  0  0
   -2.6726   -0.2644   -1.5030 H   0  0  0  0  0  0  0  0  0  0  0  0
   -6.0487   -2.7935   -0.6660 H   0  0  0  0  0  0  0  0  0  0  0  0
   -4.8743   -3.7304    1.3071 H   0  0  0  0  0  0  0  0  0  0  0  0
   -6.3343   -2.3473   -2.9045 H   0  0  0  0  0  0  0  0  0  0  0  0
   -6.9949   -1.0552   -1.8480 H   0  0  0  0  0  0  0  0  0  0  0  0
   -6.5365   -0.6867   -3.5377 H   0  0  0  0  0  0  0  0  0  0  0  0
    0.1263    1.7068   -0.7938 H   0  0  0  0  0  0  0  0  0  0  0  0
    0.1393    0.9322    2.1341 H   0  0  0  0  0  0  0  0  0  0  0  0
    1.2775    1.9329    1.2175 H   0  0  0  0  0  0  0  0  0  0  0  0
   -1.3531    4.7990    1.0623 H   0  0  0  0  0  0  0  0  0  0  0  0
   -2.6946    3.6252   -0.4289 H   0  0  0  0  0  0  0  0  0  0  0  0
   -1.2517    3.3126   -1.4061 H   0  0  0  0  0  0  0  0  0  0  0  0
   -2.5845    3.3530    2.5343 H   0  0  0  0  0  0  0  0  0  0  0  0
   -1.8623    1.8864    3.2172 H   0  0  0  0  0  0  0  0  0  0  0  0
   -3.6011    1.9301    0.9377 H   0  0  0  0  0  0  0  0  0  0  0  0
   -2.5953    0.5760    1.4335 H   0  0  0  0  0  0  0  0  0  0  0  0
    1.1684    4.8084    0.9024 H   0  0  0  0  0  0  0  0  0  0  0  0
    1.0568    3.6801   -0.4482 H   0  0  0  0  0  0  0  0  0  0  0  0
   -0.1998    6.4918   -0.3683 H   0  0  0  0  0  0  0  0  0  0  0  0
    1.2443    6.0222   -1.2928 H   0  0  0  0  0  0  0  0  0  0  0  0
   -0.3431    5.3633   -1.7308 H   0  0  0  0  0  0  0  0  0  0  0  0
  1  2  1  0  0  0  0
  1  8  2  0  0  0  0
  1  9  1  0  0  0  0
  2  3  2  0  0  0  0
  2  7  1  0  0  0  0
  3  4  1  0  0  0  0
  3 35  1  0  0  0  0
  4  5  2  0  0  0  0
  4 36  1  0  0  0  0
  5  6  1  0  0  0  0
  5 10  1  0  0  0  0
  6  7  2  0  0  0  0
  6 37  1  0  0  0  0
  7 38  1  0  0  0  0
  9 11  1  0  0  0  0
 11 15  1  0  0  0  0
 11 25  1  0  0  0  0
 11 39  1  6  0  0  0
 12 13  2  0  0  0  0
 12 21  1  0  0  0  0
 13 14  1  0  0  0  0
 13 40  1  0  0  0  0
 14 15  2  0  0  0  0
 14 41  1  0  0  0  0
 15 16  1  0  0  0  0
 16 17  2  0  0  0  0
 16 21  1  0  0  0  0
 17 18  1  0  0  0  0
 17 42  1  0  0  0  0
 18 19  2  0  0  0  0
 18 22  1  0  0  0  0
 19 20  1  0  0  0  0
 19 43  1  0  0  0  0
 20 21  2  0  0  0  0
 20 44  1  0  0  0  0
 22 23  1  0  0  0  0
 23 45  1  0  0  0  0
 23 46  1  0  0  0  0
 23 47  1  0  0  0  0
 24 25  1  0  0  0  0
 24 29  1  1  0  0  0
 24 31  1  0  0  0  0
 25 26  1  0  0  0  0
 25 48  1  6  0  0  0
 26 27  1  0  0  0  0
 26 49  1  0  0  0  0
 26 50  1  0  0  0  0
 27 28  1  0  0  0  0
 27 30  1  0  0  0  0
 27 34  1  1  0  0  0
 28 29  1  0  0  0  0
 28 32  1  0  0  0  0
 28 51  1  1  0  0  0
 29 52  1  0  0  0  0
 29 53  1  0  0  0  0
 30 31  1  0  0  0  0
 30 54  1  0  0  0  0
 30 55  1  0  0  0  0
 31 56  1  0  0  0  0
 31 57  1  0  0  0  0
 32 33  1  0  0  0  0
 32 58  1  0  0  0  0
 32 59  1  0  0  0  0
 33 60  1  0  0  0  0
 33 61  1  0  0  0  0
 33 62  1  0  0  0  0
M  END
$$$$
