Title Card Required
 OpenBabel03192317523D

 25 26  0  0  0  0  0  0  0  0999 V2000
   -1.7429    1.5005    0.0301 O   0  0  0  0  0  0  0  0  0  0  0  0
   -0.9665    0.4038   -0.0322 C   0  0  0  0  0  0  0  0  0  0  0  0
   -1.5231   -0.7350   -0.0855 N   0  0  0  0  0  0  0  0  0  0  0  0
   -2.9738   -0.5050   -0.0068 C   0  0  0  0  0  0  0  0  0  0  0  0
   -3.0834    1.0390   -0.1362 C   0  0  0  0  0  0  0  0  0  0  0  0
   -3.6850   -1.2354   -1.1399 C   0  0  0  0  0  0  0  0  0  0  0  0
   -3.4665   -0.9946    1.3556 C   0  0  0  0  0  0  0  0  0  0  0  0
    0.5039    0.6197   -0.0177 C   0  0  0  0  0  0  0  0  0  0  0  0
    1.3349   -0.5066   -0.0155 C   0  0  0  0  0  0  0  0  0  0  0  0
    2.7054   -0.2869   -0.0039 C   0  0  0  0  0  0  0  0  0  0  0  0
    3.1965    1.0171    0.0063 C   0  0  0  0  0  0  0  0  0  0  0  0
    2.2678    2.0569    0.0039 C   0  0  0  0  0  0  0  0  0  0  0  0
    0.9516    1.8718   -0.0080 N   0  0  0  0  0  0  0  0  0  0  0  0
    3.8035   -1.6259    0.0004 Cl  0  0  0  0  0  0  0  0  0  0  0  0
   -3.4400    1.3510   -1.1308 H   0  0  0  0  0  0  0  0  0  0  0  0
   -3.7157    1.5002    0.6343 H   0  0  0  0  0  0  0  0  0  0  0  0
   -3.2912   -0.9105   -2.1132 H   0  0  0  0  0  0  0  0  0  0  0  0
   -3.5262   -2.3186   -1.0476 H   0  0  0  0  0  0  0  0  0  0  0  0
   -4.7667   -1.0351   -1.1122 H   0  0  0  0  0  0  0  0  0  0  0  0
   -3.2416   -2.0633    1.4751 H   0  0  0  0  0  0  0  0  0  0  0  0
   -2.9655   -0.4433    2.1647 H   0  0  0  0  0  0  0  0  0  0  0  0
   -4.5530   -0.8470    1.4496 H   0  0  0  0  0  0  0  0  0  0  0  0
    0.9008   -1.5056   -0.0228 H   0  0  0  0  0  0  0  0  0  0  0  0
    4.2685    1.2102    0.0161 H   0  0  0  0  0  0  0  0  0  0  0  0
    2.6158    3.0940    0.0117 H   0  0  0  0  0  0  0  0  0  0  0  0
  1  2  1  0  0  0  0
  1  5  1  0  0  0  0
  2  3  2  0  0  0  0
  2  8  1  0  0  0  0
  3  4  1  0  0  0  0
  4  5  1  0  0  0  0
  4  6  1  0  0  0  0
  4  7  1  0  0  0  0
  5 15  1  0  0  0  0
  5 16  1  0  0  0  0
  6 17  1  0  0  0  0
  6 18  1  0  0  0  0
  6 19  1  0  0  0  0
  7 20  1  0  0  0  0
  7 21  1  0  0  0  0
  7 22  1  0  0  0  0
  8  9  2  0  0  0  0
  8 13  1  0  0  0  0
  9 10  1  0  0  0  0
  9 23  1  0  0  0  0
 10 11  2  0  0  0  0
 10 14  1  0  0  0  0
 11 12  1  0  0  0  0
 11 24  1  0  0  0  0
 12 13  2  0  0  0  0
 12 25  1  0  0  0  0
M  END
$$$$
