Title Card Required
 OpenBabel03192317563D

 42 45  0  0  1  0  0  0  0  0999 V2000
   -0.9033   -1.0826    1.6604 C   0  0  2  0  0  0  0  0  0  0  0  0
    0.4363   -0.3316    1.5194 C   0  0  1  0  0  0  0  0  0  0  0  0
   -0.6691   -2.4407    1.9215 O   0  0  0  0  0  0  0  0  0  0  0  0
    1.1086   -0.5886    2.7488 O   0  0  0  0  0  0  0  0  0  0  0  0
    1.3305   -0.6673    0.3418 C   0  0  0  0  0  0  0  0  0  0  0  0
    1.2201   -1.8402   -0.3717 C   0  0  0  0  0  0  0  0  0  0  0  0
    2.0865   -2.1289   -1.4537 C   0  0  0  0  0  0  0  0  0  0  0  0
    3.0751   -1.2472   -1.8041 C   0  0  0  0  0  0  0  0  0  0  0  0
    3.2551   -0.0415   -1.0740 C   0  0  0  0  0  0  0  0  0  0  0  0
    4.2951    0.8679   -1.4070 C   0  0  0  0  0  0  0  0  0  0  0  0
    4.4865    2.0194   -0.6850 C   0  0  0  0  0  0  0  0  0  0  0  0
    3.6393    2.3108    0.4102 C   0  0  0  0  0  0  0  0  0  0  0  0
    2.6166    1.4569    0.7499 C   0  0  0  0  0  0  0  0  0  0  0  0
    2.3845    0.2553    0.0175 C   0  0  0  0  0  0  0  0  0  0  0  0
   -1.8338   -0.9253    0.4771 C   0  0  0  0  0  0  0  0  0  0  0  0
   -2.1365   -2.0138   -0.3094 C   0  0  0  0  0  0  0  0  0  0  0  0
   -2.9606   -1.8924   -1.4532 C   0  0  0  0  0  0  0  0  0  0  0  0
   -3.4849   -0.6746   -1.7996 C   0  0  0  0  0  0  0  0  0  0  0  0
   -3.2425    0.4670   -0.9891 C   0  0  0  0  0  0  0  0  0  0  0  0
   -3.8233    1.7243   -1.3094 C   0  0  0  0  0  0  0  0  0  0  0  0
   -3.6374    2.8177   -0.5012 C   0  0  0  0  0  0  0  0  0  0  0  0
   -2.8667    2.6938    0.6790 C   0  0  0  0  0  0  0  0  0  0  0  0
   -2.2788    1.4953    1.0066 C   0  0  0  0  0  0  0  0  0  0  0  0
   -2.4270    0.3460    0.1769 C   0  0  0  0  0  0  0  0  0  0  0  0
   -1.3866   -0.6183    2.5427 H   0  0  0  0  0  0  0  0  0  0  0  0
    0.1952    0.7413    1.4500 H   0  0  0  0  0  0  0  0  0  0  0  0
    0.0501   -2.4553    2.5685 H   0  0  0  0  0  0  0  0  0  0  0  0
    2.0572   -0.4929    2.6055 H   0  0  0  0  0  0  0  0  0  0  0  0
    0.4526   -2.5584   -0.0942 H   0  0  0  0  0  0  0  0  0  0  0  0
    1.9582   -3.0613   -2.0051 H   0  0  0  0  0  0  0  0  0  0  0  0
    3.7459   -1.4599   -2.6392 H   0  0  0  0  0  0  0  0  0  0  0  0
    4.9450    0.6269   -2.2510 H   0  0  0  0  0  0  0  0  0  0  0  0
    5.2905    2.7078   -0.9482 H   0  0  0  0  0  0  0  0  0  0  0  0
    3.7979    3.2223    0.9885 H   0  0  0  0  0  0  0  0  0  0  0  0
    1.9861    1.7009    1.6064 H   0  0  0  0  0  0  0  0  0  0  0  0
   -1.7296   -2.9862   -0.0328 H   0  0  0  0  0  0  0  0  0  0  0  0
   -3.1709   -2.7751   -2.0590 H   0  0  0  0  0  0  0  0  0  0  0  0
   -4.1106   -0.5654   -2.6878 H   0  0  0  0  0  0  0  0  0  0  0  0
   -4.4331    1.7979   -2.2124 H   0  0  0  0  0  0  0  0  0  0  0  0
   -4.0932    3.7756   -0.7555 H   0  0  0  0  0  0  0  0  0  0  0  0
   -2.7449    3.5538    1.3392 H   0  0  0  0  0  0  0  0  0  0  0  0
   -1.7107    1.4260    1.9342 H   0  0  0  0  0  0  0  0  0  0  0  0
  1  2  1  0  0  0  0
  1  3  1  0  0  0  0
  1 15  1  0  0  0  0
  1 25  1  1  0  0  0
  2  4  1  0  0  0  0
  2  5  1  0  0  0  0
  2 26  1  6  0  0  0
  3 27  1  0  0  0  0
  4 28  1  0  0  0  0
  5  6  2  0  0  0  0
  5 14  1  0  0  0  0
  6  7  1  0  0  0  0
  6 29  1  0  0  0  0
  7  8  2  0  0  0  0
  7 30  1  0  0  0  0
  8  9  1  0  0  0  0
  8 31  1  0  0  0  0
  9 10  2  0  0  0  0
  9 14  1  0  0  0  0
 10 11  1  0  0  0  0
 10 32  1  0  0  0  0
 11 12  2  0  0  0  0
 11 33  1  0  0  0  0
 12 13  1  0  0  0  0
 12 34  1  0  0  0  0
 13 14  2  0  0  0  0
 13 35  1  0  0  0  0
 15 16  2  0  0  0  0
 15 24  1  0  0  0  0
 16 17  1  0  0  0  0
 16 36  1  0  0  0  0
 17 18  2  0  0  0  0
 17 37  1  0  0  0  0
 18 19  1  0  0  0  0
 18 38  1  0  0  0  0
 19 20  2  0  0  0  0
 19 24  1  0  0  0  0
 20 21  1  0  0  0  0
 20 39  1  0  0  0  0
 21 22  2  0  0  0  0
 21 40  1  0  0  0  0
 22 23  1  0  0  0  0
 22 41  1  0  0  0  0
 23 24  2  0  0  0  0
 23 42  1  0  0  0  0
M  END
$$$$
