Title Card Required
 OpenBabel03192317433D

 70 76  0  0  0  0  0  0  0  0999 V2000
    0.8382   -0.6451   -0.7769 O   0  0  0  0  0  0  0  0  0  0  0  0
   -0.0788   -1.6095    0.1396 P   0  0  0  0  0  0  0  0  0  0  0  0
   -0.9210   -0.5153    0.9895 O   0  0  0  0  0  0  0  0  0  0  0  0
   -1.5012    0.5306    0.3028 C   0  0  0  0  0  0  0  0  0  0  0  0
   -0.6988    1.5749   -0.1108 C   0  0  0  0  0  0  0  0  0  0  0  0
    0.7584    1.5278    0.1972 C   0  0  0  0  0  0  0  0  0  0  0  0
    1.4910    0.4138   -0.1714 C   0  0  0  0  0  0  0  0  0  0  0  0
   -2.8937    0.4452    0.0130 C   0  0  0  0  0  0  0  0  0  0  0  0
   -3.4623    1.4945   -0.6726 C   0  0  0  0  0  0  0  0  0  0  0  0
   -2.6930    2.5954   -1.1316 C   0  0  0  0  0  0  0  0  0  0  0  0
   -3.2948    3.6479   -1.8750 C   0  0  0  0  0  0  0  0  0  0  0  0
   -2.5376    4.6745   -2.3813 C   0  0  0  0  0  0  0  0  0  0  0  0
   -1.1368    4.6845   -2.1759 C   0  0  0  0  0  0  0  0  0  0  0  0
   -0.5283    3.6897   -1.4489 C   0  0  0  0  0  0  0  0  0  0  0  0
   -1.2899    2.6291   -0.8842 C   0  0  0  0  0  0  0  0  0  0  0  0
    2.8916    0.2866    0.0574 C   0  0  0  0  0  0  0  0  0  0  0  0
    3.5275    1.3354    0.6834 C   0  0  0  0  0  0  0  0  0  0  0  0
    2.8256    2.4836    1.1312 C   0  0  0  0  0  0  0  0  0  0  0  0
    3.4972    3.5302    1.8216 C   0  0  0  0  0  0  0  0  0  0  0  0
    2.8053    4.6139    2.3007 C   0  0  0  0  0  0  0  0  0  0  0  0
    1.4032    4.6923    2.1180 C   0  0  0  0  0  0  0  0  0  0  0  0
    0.7288    3.7044    1.4420 C   0  0  0  0  0  0  0  0  0  0  0  0
    1.4219    2.5814    0.9098 C   0  0  0  0  0  0  0  0  0  0  0  0
   -1.0699   -2.1209   -1.0022 O   0  0  0  0  0  0  0  0  0  0  0  0
    3.6397   -0.9339   -0.3429 C   0  0  0  0  0  0  0  0  0  0  0  0
    3.4821   -1.5038   -1.6154 C   0  0  0  0  0  0  0  0  0  0  0  0
    4.2260   -2.6181   -1.9964 C   0  0  0  0  0  0  0  0  0  0  0  0
    5.1300   -3.1702   -1.0784 C   0  0  0  0  0  0  0  0  0  0  0  0
    5.3000   -2.6324    0.1961 C   0  0  0  0  0  0  0  0  0  0  0  0
    4.5464   -1.5071    0.5506 C   0  0  0  0  0  0  0  0  0  0  0  0
    6.2495   -3.2518    1.1884 C   0  0  0  0  0  0  0  0  0  0  0  0
    4.0762   -3.2232   -3.3683 C   0  0  0  0  0  0  0  0  0  0  0  0
   -3.6749   -0.7684    0.3706 C   0  0  0  0  0  0  0  0  0  0  0  0
   -3.5735   -1.3659    1.6368 C   0  0  0  0  0  0  0  0  0  0  0  0
   -4.3030   -2.5123    1.9493 C   0  0  0  0  0  0  0  0  0  0  0  0
   -5.1429   -3.0636    0.9715 C   0  0  0  0  0  0  0  0  0  0  0  0
   -5.2653   -2.4927   -0.2951 C   0  0  0  0  0  0  0  0  0  0  0  0
   -4.5199   -1.3424   -0.5834 C   0  0  0  0  0  0  0  0  0  0  0  0
   -6.1764   -3.0863   -1.3384 C   0  0  0  0  0  0  0  0  0  0  0  0
   -4.1913   -3.1602    3.3049 C   0  0  0  0  0  0  0  0  0  0  0  0
    0.5515   -2.6096    0.9972 O   0  0  0  0  0  0  0  0  0  0  0  0
   -4.5329    1.4753   -0.8883 H   0  0  0  0  0  0  0  0  0  0  0  0
   -4.3730    3.6156   -2.0444 H   0  0  0  0  0  0  0  0  0  0  0  0
   -3.0094    5.4748   -2.9530 H   0  0  0  0  0  0  0  0  0  0  0  0
   -0.5333    5.4864   -2.6032 H   0  0  0  0  0  0  0  0  0  0  0  0
    0.5519    3.7041   -1.3059 H   0  0  0  0  0  0  0  0  0  0  0  0
    4.6055    1.2808    0.8492 H   0  0  0  0  0  0  0  0  0  0  0  0
    4.5754    3.4464    1.9723 H   0  0  0  0  0  0  0  0  0  0  0  0
    3.3288    5.4089    2.8337 H   0  0  0  0  0  0  0  0  0  0  0  0
    0.8522    5.5419    2.5237 H   0  0  0  0  0  0  0  0  0  0  0  0
   -0.3520    3.7709    1.3172 H   0  0  0  0  0  0  0  0  0  0  0  0
   -1.6188   -2.8567   -0.6944 H   0  0  0  0  0  0  0  0  0  0  0  0
    2.7737   -1.0628   -2.3186 H   0  0  0  0  0  0  0  0  0  0  0  0
    5.7125   -4.0497   -1.3679 H   0  0  0  0  0  0  0  0  0  0  0  0
    4.6503   -1.0839    1.5530 H   0  0  0  0  0  0  0  0  0  0  0  0
    6.9376   -2.5003    1.6018 H   0  0  0  0  0  0  0  0  0  0  0  0
    5.6978   -3.6924    2.0323 H   0  0  0  0  0  0  0  0  0  0  0  0
    6.8484   -4.0461    0.7241 H   0  0  0  0  0  0  0  0  0  0  0  0
    5.0145   -3.1442   -3.9375 H   0  0  0  0  0  0  0  0  0  0  0  0
    3.8230   -4.2913   -3.3010 H   0  0  0  0  0  0  0  0  0  0  0  0
    3.2867   -2.7203   -3.9414 H   0  0  0  0  0  0  0  0  0  0  0  0
   -2.9129   -0.9283    2.3862 H   0  0  0  0  0  0  0  0  0  0  0  0
   -5.7145   -3.9656    1.2087 H   0  0  0  0  0  0  0  0  0  0  0  0
   -4.5791   -0.8994   -1.5810 H   0  0  0  0  0  0  0  0  0  0  0  0
   -7.0189   -2.4114   -1.5516 H   0  0  0  0  0  0  0  0  0  0  0  0
   -5.6414   -3.2492   -2.2851 H   0  0  0  0  0  0  0  0  0  0  0  0
   -6.5892   -4.0480   -1.0072 H   0  0  0  0  0  0  0  0  0  0  0  0
   -5.1812   -3.2727    3.7706 H   0  0  0  0  0  0  0  0  0  0  0  0
   -3.7508   -4.1651    3.2226 H   0  0  0  0  0  0  0  0  0  0  0  0
   -3.5584   -2.5684    3.9780 H   0  0  0  0  0  0  0  0  0  0  0  0
  1  2  1  0  0  0  0
  1  7  1  0  0  0  0
  2  3  1  0  0  0  0
  2 24  1  0  0  0  0
  2 41  2  0  0  0  0
  3  4  1  0  0  0  0
  4  5  2  0  0  0  0
  4  8  1  0  0  0  0
  5  6  1  0  0  0  0
  5 15  1  0  0  0  0
  6  7  2  0  0  0  0
  6 23  1  0  0  0  0
  7 16  1  0  0  0  0
  8  9  2  0  0  0  0
  8 33  1  0  0  0  0
  9 10  1  0  0  0  0
  9 42  1  0  0  0  0
 10 11  2  0  0  0  0
 10 15  1  0  0  0  0
 11 12  1  0  0  0  0
 11 43  1  0  0  0  0
 12 13  2  0  0  0  0
 12 44  1  0  0  0  0
 13 14  1  0  0  0  0
 13 45  1  0  0  0  0
 14 15  2  0  0  0  0
 14 46  1  0  0  0  0
 16 17  2  0  0  0  0
 16 25  1  0  0  0  0
 17 18  1  0  0  0  0
 17 47  1  0  0  0  0
 18 19  2  0  0  0  0
 18 23  1  0  0  0  0
 19 20  1  0  0  0  0
 19 48  1  0  0  0  0
 20 21  2  0  0  0  0
 20 49  1  0  0  0  0
 21 22  1  0  0  0  0
 21 50  1  0  0  0  0
 22 23  2  0  0  0  0
 22 51  1  0  0  0  0
 24 52  1  0  0  0  0
 25 26  2  0  0  0  0
 25 30  1  0  0  0  0
 26 27  1  0  0  0  0
 26 53  1  0  0  0  0
 27 28  2  0  0  0  0
 27 32  1  0  0  0  0
 28 29  1  0  0  0  0
 28 54  1  0  0  0  0
 29 30  2  0  0  0  0
 29 31  1  0  0  0  0
 30 55  1  0  0  0  0
 31 56  1  0  0  0  0
 31 57  1  0  0  0  0
 31 58  1  0  0  0  0
 32 59  1  0  0  0  0
 32 60  1  0  0  0  0
 32 61  1  0  0  0  0
 33 34  2  0  0  0  0
 33 38  1  0  0  0  0
 34 35  1  0  0  0  0
 34 62  1  0  0  0  0
 35 36  2  0  0  0  0
 35 40  1  0  0  0  0
 36 37  1  0  0  0  0
 36 63  1  0  0  0  0
 37 38  2  0  0  0  0
 37 39  1  0  0  0  0
 38 64  1  0  0  0  0
 39 65  1  0  0  0  0
 39 66  1  0  0  0  0
 39 67  1  0  0  0  0
 40 68  1  0  0  0  0
 40 69  1  0  0  0  0
 40 70  1  0  0  0  0
M  END
$$$$
