Title Card Required
 OpenBabel03192317453D

 29 31  0  0  1  0  0  0  0  0999 V2000
   -0.7082    1.7560    0.3766 O   0  0  0  0  0  0  0  0  0  0  0  0
   -0.9833    0.5626   -0.1775 C   0  0  0  0  0  0  0  0  0  0  0  0
   -0.0524   -0.0555   -0.7833 N   0  0  0  0  0  0  0  0  0  0  0  0
    1.1250    0.8073   -0.7353 C   0  0  1  0  0  0  0  0  0  0  0  0
    0.7019    1.9347    0.2458 C   0  0  0  0  0  0  0  0  0  0  0  0
   -2.3779    0.0664   -0.0551 C   0  0  0  0  0  0  0  0  0  0  0  0
   -2.7230   -1.1276   -0.6986 C   0  0  0  0  0  0  0  0  0  0  0  0
   -4.0317   -1.5799   -0.5791 C   0  0  0  0  0  0  0  0  0  0  0  0
   -4.9336   -0.8274    0.1710 C   0  0  0  0  0  0  0  0  0  0  0  0
   -4.4807    0.3488    0.7706 C   0  0  0  0  0  0  0  0  0  0  0  0
   -3.2320    0.7911    0.6628 N   0  0  0  0  0  0  0  0  0  0  0  0
    2.3932    0.1009   -0.3141 C   0  0  0  0  0  0  0  0  0  0  0  0
    3.6301    0.7113   -0.5476 C   0  0  0  0  0  0  0  0  0  0  0  0
    4.8102    0.1104   -0.1161 C   0  0  0  0  0  0  0  0  0  0  0  0
    4.7660   -1.1149    0.5491 C   0  0  0  0  0  0  0  0  0  0  0  0
    3.5370   -1.7318    0.7775 C   0  0  0  0  0  0  0  0  0  0  0  0
    2.3553   -1.1271    0.3493 C   0  0  0  0  0  0  0  0  0  0  0  0
    1.2860    1.2173   -1.7479 H   0  0  0  0  0  0  0  0  0  0  0  0
    1.1690    1.8082    1.2348 H   0  0  0  0  0  0  0  0  0  0  0  0
    0.9004    2.9477   -0.1249 H   0  0  0  0  0  0  0  0  0  0  0  0
   -1.9625   -1.6599   -1.2695 H   0  0  0  0  0  0  0  0  0  0  0  0
   -4.3451   -2.5050   -1.0655 H   0  0  0  0  0  0  0  0  0  0  0  0
   -5.9708   -1.1410    0.2918 H   0  0  0  0  0  0  0  0  0  0  0  0
   -5.1630    0.9621    1.3669 H   0  0  0  0  0  0  0  0  0  0  0  0
    3.6693    1.6657   -1.0796 H   0  0  0  0  0  0  0  0  0  0  0  0
    5.7688    0.5966   -0.3046 H   0  0  0  0  0  0  0  0  0  0  0  0
    5.6892   -1.5899    0.8847 H   0  0  0  0  0  0  0  0  0  0  0  0
    3.4964   -2.6936    1.2915 H   0  0  0  0  0  0  0  0  0  0  0  0
    1.3898   -1.6080    0.5135 H   0  0  0  0  0  0  0  0  0  0  0  0
  1  2  1  0  0  0  0
  1  5  1  0  0  0  0
  2  3  2  0  0  0  0
  2  6  1  0  0  0  0
  3  4  1  0  0  0  0
  4  5  1  0  0  0  0
  4 12  1  0  0  0  0
  4 18  1  6  0  0  0
  5 19  1  0  0  0  0
  5 20  1  0  0  0  0
  6  7  2  0  0  0  0
  6 11  1  0  0  0  0
  7  8  1  0  0  0  0
  7 21  1  0  0  0  0
  8  9  2  0  0  0  0
  8 22  1  0  0  0  0
  9 10  1  0  0  0  0
  9 23  1  0  0  0  0
 10 11  2  0  0  0  0
 10 24  1  0  0  0  0
 12 13  2  0  0  0  0
 12 17  1  0  0  0  0
 13 14  1  0  0  0  0
 13 25  1  0  0  0  0
 14 15  2  0  0  0  0
 14 26  1  0  0  0  0
 15 16  1  0  0  0  0
 15 27  1  0  0  0  0
 16 17  2  0  0  0  0
 16 28  1  0  0  0  0
 17 29  1  0  0  0  0
M  END
$$$$
