Title Card Required
 OpenBabel03192317523D

 35 37  0  0  1  0  0  0  0  0999 V2000
    0.8577   -1.7940   -0.1901 O   0  0  0  0  0  0  0  0  0  0  0  0
    1.0985   -0.4724   -0.1172 C   0  0  0  0  0  0  0  0  0  0  0  0
    0.1105    0.3250   -0.1132 N   0  0  0  0  0  0  0  0  0  0  0  0
   -1.0960   -0.4944   -0.2197 C   0  0  1  0  0  0  0  0  0  0  0  0
   -0.5609   -1.9431   -0.1117 C   0  0  0  0  0  0  0  0  0  0  0  0
    2.5212   -0.0485   -0.0669 C   0  0  0  0  0  0  0  0  0  0  0  0
    2.8141    1.3205   -0.0732 C   0  0  0  0  0  0  0  0  0  0  0  0
    4.1485    1.7047   -0.0260 C   0  0  0  0  0  0  0  0  0  0  0  0
    5.1285    0.7152    0.0240 C   0  0  0  0  0  0  0  0  0  0  0  0
    4.7240   -0.6202    0.0253 C   0  0  0  0  0  0  0  0  0  0  0  0
    3.4507   -0.9995   -0.0191 N   0  0  0  0  0  0  0  0  0  0  0  0
   -2.1391   -0.1456    0.8476 C   0  0  0  0  0  0  0  0  0  0  0  0
   -3.4164   -0.9825    0.6749 C   0  0  0  0  0  0  0  0  0  0  0  0
   -4.2237   -0.5723   -0.5599 C   0  0  0  0  0  0  0  0  0  0  0  0
   -4.5425    0.9237   -0.5415 C   0  0  0  0  0  0  0  0  0  0  0  0
   -3.2743    1.7650   -0.3906 C   0  0  0  0  0  0  0  0  0  0  0  0
   -2.4813    1.3497    0.8492 C   0  0  0  0  0  0  0  0  0  0  0  0
   -1.5292   -0.3153   -1.2185 H   0  0  0  0  0  0  0  0  0  0  0  0
   -0.8106   -2.4037    0.8588 H   0  0  0  0  0  0  0  0  0  0  0  0
   -0.8923   -2.6089   -0.9186 H   0  0  0  0  0  0  0  0  0  0  0  0
    1.9947    2.0374   -0.1161 H   0  0  0  0  0  0  0  0  0  0  0  0
    4.4214    2.7613   -0.0298 H   0  0  0  0  0  0  0  0  0  0  0  0
    6.1886    0.9677    0.0609 H   0  0  0  0  0  0  0  0  0  0  0  0
    5.4685   -1.4212    0.0649 H   0  0  0  0  0  0  0  0  0  0  0  0
   -1.6784   -0.3957    1.8192 H   0  0  0  0  0  0  0  0  0  0  0  0
   -3.1747   -2.0578    0.6370 H   0  0  0  0  0  0  0  0  0  0  0  0
   -4.0448   -0.8407    1.5702 H   0  0  0  0  0  0  0  0  0  0  0  0
   -3.6616   -0.8149   -1.4779 H   0  0  0  0  0  0  0  0  0  0  0  0
   -5.1526   -1.1606   -0.6077 H   0  0  0  0  0  0  0  0  0  0  0  0
   -5.0929    1.2087   -1.4510 H   0  0  0  0  0  0  0  0  0  0  0  0
   -5.2126    1.1333    0.3109 H   0  0  0  0  0  0  0  0  0  0  0  0
   -2.6447    1.6537   -1.2900 H   0  0  0  0  0  0  0  0  0  0  0  0
   -3.5315    2.8333   -0.3293 H   0  0  0  0  0  0  0  0  0  0  0  0
   -3.0867    1.5645    1.7466 H   0  0  0  0  0  0  0  0  0  0  0  0
   -1.5542    1.9332    0.9301 H   0  0  0  0  0  0  0  0  0  0  0  0
  1  2  1  0  0  0  0
  1  5  1  0  0  0  0
  2  3  2  0  0  0  0
  2  6  1  0  0  0  0
  3  4  1  0  0  0  0
  4  5  1  0  0  0  0
  4 12  1  0  0  0  0
  4 18  1  6  0  0  0
  5 19  1  0  0  0  0
  5 20  1  0  0  0  0
  6  7  2  0  0  0  0
  6 11  1  0  0  0  0
  7  8  1  0  0  0  0
  7 21  1  0  0  0  0
  8  9  2  0  0  0  0
  8 22  1  0  0  0  0
  9 10  1  0  0  0  0
  9 23  1  0  0  0  0
 10 11  2  0  0  0  0
 10 24  1  0  0  0  0
 12 13  1  0  0  0  0
 12 17  1  0  0  0  0
 12 25  1  0  0  0  0
 13 14  1  0  0  0  0
 13 26  1  0  0  0  0
 13 27  1  0  0  0  0
 14 15  1  0  0  0  0
 14 28  1  0  0  0  0
 14 29  1  0  0  0  0
 15 16  1  0  0  0  0
 15 30  1  0  0  0  0
 15 31  1  0  0  0  0
 16 17  1  0  0  0  0
 16 32  1  0  0  0  0
 16 33  1  0  0  0  0
 17 34  1  0  0  0  0
 17 35  1  0  0  0  0
M  END
$$$$
