Title Card Required
 OpenBabel03192317533D

 38 39  0  0  1  0  0  0  0  0999 V2000
    0.5263    1.3777   -0.0394 C   0  0  2  0  0  0  0  0  0  0  0  0
    1.2693    0.2762   -0.8666 C   0  0  2  0  0  0  0  0  0  0  0  0
    1.0659    1.4454    1.3014 N   0  0  0  0  0  0  0  0  0  0  0  0
    0.8914   -1.1212   -0.4203 C   0  0  0  0  0  0  0  0  0  0  0  0
   -0.9651    1.1161   -0.0493 C   0  0  0  0  0  0  0  0  0  0  0  0
   -1.7507    1.5907   -1.1023 C   0  0  0  0  0  0  0  0  0  0  0  0
   -3.1067    1.2719   -1.1801 C   0  0  0  0  0  0  0  0  0  0  0  0
   -3.6931    0.4797   -0.1948 C   0  0  0  0  0  0  0  0  0  0  0  0
   -2.9171    0.0109    0.8662 C   0  0  0  0  0  0  0  0  0  0  0  0
   -1.5622    0.3244    0.9380 C   0  0  0  0  0  0  0  0  0  0  0  0
    0.6496    2.6191    2.0432 C   0  0  0  0  0  0  0  0  0  0  0  0
    2.7102    0.4304   -0.8956 N   0  0  0  0  0  0  0  0  0  0  0  0
    3.2281    1.7386   -1.2148 C   0  0  0  0  0  0  0  0  0  0  0  0
    1.3517   -1.6484    0.7921 C   0  0  0  0  0  0  0  0  0  0  0  0
    0.9499   -2.9131    1.2176 C   0  0  0  0  0  0  0  0  0  0  0  0
    0.0747   -3.6698    0.4394 C   0  0  0  0  0  0  0  0  0  0  0  0
   -0.3908   -3.1544   -0.7687 C   0  0  0  0  0  0  0  0  0  0  0  0
    0.0185   -1.8915   -1.1934 C   0  0  0  0  0  0  0  0  0  0  0  0
    0.6889    2.3342   -0.5854 H   0  0  0  0  0  0  0  0  0  0  0  0
    0.8997    0.4034   -1.8997 H   0  0  0  0  0  0  0  0  0  0  0  0
    2.0810    1.4127    1.2439 H   0  0  0  0  0  0  0  0  0  0  0  0
   -1.2938    2.2189   -1.8722 H   0  0  0  0  0  0  0  0  0  0  0  0
   -3.7078    1.6481   -2.0096 H   0  0  0  0  0  0  0  0  0  0  0  0
   -4.7541    0.2312   -0.2510 H   0  0  0  0  0  0  0  0  0  0  0  0
   -3.3704   -0.6103    1.6406 H   0  0  0  0  0  0  0  0  0  0  0  0
   -0.9398   -0.0487    1.7537 H   0  0  0  0  0  0  0  0  0  0  0  0
    1.1612    2.6480    3.0148 H   0  0  0  0  0  0  0  0  0  0  0  0
    0.8522    3.5717    1.5119 H   0  0  0  0  0  0  0  0  0  0  0  0
   -0.4321    2.5733    2.2365 H   0  0  0  0  0  0  0  0  0  0  0  0
    3.1680   -0.0064   -0.1025 H   0  0  0  0  0  0  0  0  0  0  0  0
    2.9997    2.5338   -0.4740 H   0  0  0  0  0  0  0  0  0  0  0  0
    4.3198    1.6868   -1.3263 H   0  0  0  0  0  0  0  0  0  0  0  0
    2.8167    2.0700   -2.1814 H   0  0  0  0  0  0  0  0  0  0  0  0
    2.0004   -1.0510    1.4351 H   0  0  0  0  0  0  0  0  0  0  0  0
    1.3160   -3.3053    2.1680 H   0  0  0  0  0  0  0  0  0  0  0  0
   -0.2445   -4.6579    0.7749 H   0  0  0  0  0  0  0  0  0  0  0  0
   -1.0772   -3.7375   -1.3847 H   0  0  0  0  0  0  0  0  0  0  0  0
   -0.3598   -1.4864   -2.1348 H   0  0  0  0  0  0  0  0  0  0  0  0
  1  2  1  0  0  0  0
  1  3  1  0  0  0  0
  1  5  1  0  0  0  0
  1 19  1  6  0  0  0
  2  4  1  0  0  0  0
  2 12  1  0  0  0  0
  2 20  1  6  0  0  0
  3 11  1  0  0  0  0
  3 21  1  0  0  0  0
  4 14  2  0  0  0  0
  4 18  1  0  0  0  0
  5  6  2  0  0  0  0
  5 10  1  0  0  0  0
  6  7  1  0  0  0  0
  6 22  1  0  0  0  0
  7  8  2  0  0  0  0
  7 23  1  0  0  0  0
  8  9  1  0  0  0  0
  8 24  1  0  0  0  0
  9 10  2  0  0  0  0
  9 25  1  0  0  0  0
 10 26  1  0  0  0  0
 11 27  1  0  0  0  0
 11 28  1  0  0  0  0
 11 29  1  0  0  0  0
 12 13  1  0  0  0  0
 12 30  1  0  0  0  0
 13 31  1  0  0  0  0
 13 32  1  0  0  0  0
 13 33  1  0  0  0  0
 14 15  1  0  0  0  0
 14 34  1  0  0  0  0
 15 16  2  0  0  0  0
 15 35  1  0  0  0  0
 16 17  1  0  0  0  0
 16 36  1  0  0  0  0
 17 18  2  0  0  0  0
 17 37  1  0  0  0  0
 18 38  1  0  0  0  0
M  END
$$$$
