Title Card Required
 OpenBabel03192317553D

 40 43  0  0  0  0  0  0  0  0999 V2000
    2.6403    1.4164    1.2396 C   0  0  0  0  0  0  0  0  0  0  0  0
    1.4496    1.5023    0.4640 C   0  0  0  0  0  0  0  0  0  0  0  0
    0.5496    0.3859    0.4225 C   0  0  0  0  0  0  0  0  0  0  0  0
    0.8617   -0.7276    1.1742 C   0  0  0  0  0  0  0  0  0  0  0  0
    2.0361   -0.8171    1.9643 C   0  0  0  0  0  0  0  0  0  0  0  0
    2.9120    0.2314    1.9781 C   0  0  0  0  0  0  0  0  0  0  0  0
   -0.7344    0.5230   -0.3325 C   0  0  0  0  0  0  0  0  0  0  0  0
   -1.8981    0.9503    0.3822 C   0  0  0  0  0  0  0  0  0  0  0  0
   -3.1368    1.0789   -0.3116 C   0  0  0  0  0  0  0  0  0  0  0  0
   -3.1977    0.7801   -1.6981 C   0  0  0  0  0  0  0  0  0  0  0  0
   -2.0800    0.3784   -2.3796 C   0  0  0  0  0  0  0  0  0  0  0  0
   -0.8524    0.2686   -1.6842 C   0  0  0  0  0  0  0  0  0  0  0  0
    3.5291    2.5229    1.2709 C   0  0  0  0  0  0  0  0  0  0  0  0
    3.2437    3.6692    0.5713 C   0  0  0  0  0  0  0  0  0  0  0  0
    2.0553    3.7587   -0.1928 C   0  0  0  0  0  0  0  0  0  0  0  0
    1.1807    2.7020   -0.2485 C   0  0  0  0  0  0  0  0  0  0  0  0
   -1.8591    1.2393    1.7760 C   0  0  0  0  0  0  0  0  0  0  0  0
   -2.9941    1.6369    2.4382 C   0  0  0  0  0  0  0  0  0  0  0  0
   -4.2229    1.7690    1.7467 C   0  0  0  0  0  0  0  0  0  0  0  0
   -4.2914    1.4964    0.4033 C   0  0  0  0  0  0  0  0  0  0  0  0
   -0.3041   -2.0602    1.4072 S   0  0  0  0  0  0  0  0  0  0  0  0
    0.9143   -3.7130    0.9813 Cl  0  0  0  0  0  0  0  0  0  0  0  0
   -0.5913   -2.1413    2.8181 O   0  0  0  0  0  0  0  0  0  0  0  0
   -1.3552   -2.0550    0.4227 O   0  0  0  0  0  0  0  0  0  0  0  0
    0.5432   -0.2356   -2.6714 S   0  0  0  0  0  0  0  0  0  0  0  0
    0.8366   -2.1793   -1.9873 Cl  0  0  0  0  0  0  0  0  0  0  0  0
    0.1230   -0.3375   -4.0470 O   0  0  0  0  0  0  0  0  0  0  0  0
    1.7242    0.5051   -2.3026 O   0  0  0  0  0  0  0  0  0  0  0  0
    2.2266   -1.7230    2.5405 H   0  0  0  0  0  0  0  0  0  0  0  0
    3.8258    0.1761    2.5719 H   0  0  0  0  0  0  0  0  0  0  0  0
   -4.1525    0.8741   -2.2181 H   0  0  0  0  0  0  0  0  0  0  0  0
   -2.1081    0.1459   -3.4434 H   0  0  0  0  0  0  0  0  0  0  0  0
    4.4420    2.4445    1.8641 H   0  0  0  0  0  0  0  0  0  0  0  0
    3.9319    4.5149    0.6014 H   0  0  0  0  0  0  0  0  0  0  0  0
    1.8372    4.6721   -0.7472 H   0  0  0  0  0  0  0  0  0  0  0  0
    0.2755    2.7727   -0.8519 H   0  0  0  0  0  0  0  0  0  0  0  0
   -0.9207    1.1391    2.3228 H   0  0  0  0  0  0  0  0  0  0  0  0
   -2.9501    1.8505    3.5067 H   0  0  0  0  0  0  0  0  0  0  0  0
   -5.1159    2.0845    2.2878 H   0  0  0  0  0  0  0  0  0  0  0  0
   -5.2347    1.5910   -0.1375 H   0  0  0  0  0  0  0  0  0  0  0  0
  1  2  1  0  0  0  0
  1  6  2  0  0  0  0
  1 13  1  0  0  0  0
  2  3  2  0  0  0  0
  2 16  1  0  0  0  0
  3  4  1  0  0  0  0
  3  7  1  0  0  0  0
  4  5  2  0  0  0  0
  4 21  1  0  0  0  0
  5  6  1  0  0  0  0
  5 29  1  0  0  0  0
  6 30  1  0  0  0  0
  7  8  2  0  0  0  0
  7 12  1  0  0  0  0
  8  9  1  0  0  0  0
  8 17  1  0  0  0  0
  9 10  2  0  0  0  0
  9 20  1  0  0  0  0
 10 11  1  0  0  0  0
 10 31  1  0  0  0  0
 11 12  2  0  0  0  0
 11 32  1  0  0  0  0
 12 25  1  0  0  0  0
 13 14  2  0  0  0  0
 13 33  1  0  0  0  0
 14 15  1  0  0  0  0
 14 34  1  0  0  0  0
 15 16  2  0  0  0  0
 15 35  1  0  0  0  0
 16 36  1  0  0  0  0
 17 18  2  0  0  0  0
 17 37  1  0  0  0  0
 18 19  1  0  0  0  0
 18 38  1  0  0  0  0
 19 20  2  0  0  0  0
 19 39  1  0  0  0  0
 20 40  1  0  0  0  0
 21 22  1  0  0  0  0
 21 23  2  0  0  0  0
 21 24  2  0  0  0  0
 25 26  1  0  0  0  0
 25 27  2  0  0  0  0
 25 28  2  0  0  0  0
M  END
$$$$
