Title Card Required
 OpenBabel03192317473D

 51 53  0  0  1  0  0  0  0  0999 V2000
   -0.9297    2.3281    0.0863 C   0  0  0  0  0  0  0  0  0  0  0  0
   -0.9671    0.9346   -0.0403 C   0  0  0  0  0  0  0  0  0  0  0  0
    0.1081    0.1921   -0.2830 N   0  0  0  0  0  0  0  0  0  0  0  0
    1.2769    0.8124   -0.4078 C   0  0  0  0  0  0  0  0  0  0  0  0
    1.4308    2.1990   -0.2978 C   0  0  0  0  0  0  0  0  0  0  0  0
    0.2984    2.9668   -0.0476 C   0  0  0  0  0  0  0  0  0  0  0  0
   -2.2716    0.2390    0.1038 C   0  0  0  0  0  0  0  0  0  0  0  0
    2.4769   -0.0201   -0.6789 C   0  0  0  0  0  0  0  0  0  0  0  0
   -2.2533   -1.1052    0.0589 O   0  0  0  0  0  0  0  0  0  0  0  0
   -3.6210   -1.5146    0.0739 C   0  0  0  0  0  0  0  0  0  0  0  0
   -4.3921   -0.2242    0.4344 C   0  0  1  0  0  0  0  0  0  0  0  0
   -3.3832    0.8256    0.2833 N   0  0  0  0  0  0  0  0  0  0  0  0
    3.6558    0.4361   -0.8031 N   0  0  0  0  0  0  0  0  0  0  0  0
    4.5356   -0.7204   -0.9820 C   0  0  2  0  0  0  0  0  0  0  0  0
    3.5488   -1.9010   -1.1499 C   0  0  0  0  0  0  0  0  0  0  0  0
    2.2830   -1.3462   -0.7916 O   0  0  0  0  0  0  0  0  0  0  0  0
   -5.6344    0.0239   -0.4242 C   0  0  1  0  0  0  0  0  0  0  0  0
    5.4959   -0.8715    0.2111 C   0  0  1  0  0  0  0  0  0  0  0  0
    6.5365    0.2520    0.1974 C   0  0  0  0  0  0  0  0  0  0  0  0
   -6.6267   -1.1460   -0.3358 C   0  0  0  0  0  0  0  0  0  0  0  0
   -6.2738    1.3636   -0.0706 C   0  0  0  0  0  0  0  0  0  0  0  0
    4.7308   -0.9364    1.5327 C   0  0  0  0  0  0  0  0  0  0  0  0
    7.5514    0.1775    1.3323 C   0  0  0  0  0  0  0  0  0  0  0  0
   -7.1552   -1.4504    1.0641 C   0  0  0  0  0  0  0  0  0  0  0  0
   -1.8568    2.8651    0.2854 H   0  0  0  0  0  0  0  0  0  0  0  0
    2.4246    2.6311   -0.4126 H   0  0  0  0  0  0  0  0  0  0  0  0
    0.3725    4.0513    0.0438 H   0  0  0  0  0  0  0  0  0  0  0  0
   -3.7415   -2.3321    0.7959 H   0  0  0  0  0  0  0  0  0  0  0  0
   -3.8843   -1.8813   -0.9324 H   0  0  0  0  0  0  0  0  0  0  0  0
   -4.7026   -0.2317    1.4953 H   0  0  0  0  0  0  0  0  0  0  0  0
    5.1400   -0.5776   -1.8915 H   0  0  0  0  0  0  0  0  0  0  0  0
    3.4894   -2.2634   -2.1865 H   0  0  0  0  0  0  0  0  0  0  0  0
    3.7655   -2.7503   -0.4866 H   0  0  0  0  0  0  0  0  0  0  0  0
   -5.2811    0.0784   -1.4695 H   0  0  0  0  0  0  0  0  0  0  0  0
    6.0247   -1.8316    0.0608 H   0  0  0  0  0  0  0  0  0  0  0  0
    7.0662    0.2251   -0.7693 H   0  0  0  0  0  0  0  0  0  0  0  0
    5.9995    1.2139    0.2264 H   0  0  0  0  0  0  0  0  0  0  0  0
   -7.4743   -0.9221   -1.0035 H   0  0  0  0  0  0  0  0  0  0  0  0
   -6.1569   -2.0546   -0.7484 H   0  0  0  0  0  0  0  0  0  0  0  0
   -5.5499    2.1766   -0.2083 H   0  0  0  0  0  0  0  0  0  0  0  0
   -7.1533    1.5587   -0.7018 H   0  0  0  0  0  0  0  0  0  0  0  0
   -6.5983    1.3840    0.9813 H   0  0  0  0  0  0  0  0  0  0  0  0
    5.3803   -1.2613    2.3567 H   0  0  0  0  0  0  0  0  0  0  0  0
    4.3246    0.0550    1.7847 H   0  0  0  0  0  0  0  0  0  0  0  0
    3.8846   -1.6389    1.4817 H   0  0  0  0  0  0  0  0  0  0  0  0
    8.0510   -0.8038    1.3547 H   0  0  0  0  0  0  0  0  0  0  0  0
    8.3287    0.9457    1.2170 H   0  0  0  0  0  0  0  0  0  0  0  0
    7.0775    0.3332    2.3120 H   0  0  0  0  0  0  0  0  0  0  0  0
   -7.6453   -0.5754    1.5145 H   0  0  0  0  0  0  0  0  0  0  0  0
   -7.8958   -2.2615    1.0296 H   0  0  0  0  0  0  0  0  0  0  0  0
   -6.3529   -1.7715    1.7456 H   0  0  0  0  0  0  0  0  0  0  0  0
  1  2  2  0  0  0  0
  1  6  1  0  0  0  0
  1 25  1  0  0  0  0
  2  3  1  0  0  0  0
  2  7  1  0  0  0  0
  3  4  2  0  0  0  0
  4  5  1  0  0  0  0
  4  8  1  0  0  0  0
  5  6  2  0  0  0  0
  5 26  1  0  0  0  0
  6 27  1  0  0  0  0
  7  9  1  0  0  0  0
  7 12  2  0  0  0  0
  8 13  2  0  0  0  0
  8 16  1  0  0  0  0
  9 10  1  0  0  0  0
 10 11  1  0  0  0  0
 10 28  1  0  0  0  0
 10 29  1  0  0  0  0
 11 12  1  0  0  0  0
 11 17  1  0  0  0  0
 11 30  1  1  0  0  0
 13 14  1  0  0  0  0
 14 15  1  0  0  0  0
 14 18  1  0  0  0  0
 14 31  1  6  0  0  0
 15 16  1  0  0  0  0
 15 32  1  0  0  0  0
 15 33  1  0  0  0  0
 17 20  1  0  0  0  0
 17 21  1  0  0  0  0
 17 34  1  6  0  0  0
 18 19  1  0  0  0  0
 18 22  1  0  0  0  0
 18 35  1  6  0  0  0
 19 23  1  0  0  0  0
 19 36  1  0  0  0  0
 19 37  1  0  0  0  0
 20 24  1  0  0  0  0
 20 38  1  0  0  0  0
 20 39  1  0  0  0  0
 21 40  1  0  0  0  0
 21 41  1  0  0  0  0
 21 42  1  0  0  0  0
 22 43  1  0  0  0  0
 22 44  1  0  0  0  0
 22 45  1  0  0  0  0
 23 46  1  0  0  0  0
 23 47  1  0  0  0  0
 23 48  1  0  0  0  0
 24 49  1  0  0  0  0
 24 50  1  0  0  0  0
 24 51  1  0  0  0  0
M  END
$$$$
