Title Card Required
 OpenBabel03192317423D

 45 47  0  0  1  0  0  0  0  0999 V2000
   -1.1886    2.2601    0.1450 C   0  0  0  0  0  0  0  0  0  0  0  0
   -1.1298    0.8617    0.1392 C   0  0  0  0  0  0  0  0  0  0  0  0
    0.0000    0.1760    0.0002 N   0  0  0  0  0  0  0  0  0  0  0  0
    1.1298    0.8617   -0.1390 C   0  0  0  0  0  0  0  0  0  0  0  0
    1.1885    2.2601   -0.1452 C   0  0  0  0  0  0  0  0  0  0  0  0
   -0.0001    2.9676   -0.0002 C   0  0  0  0  0  0  0  0  0  0  0  0
   -2.3920    0.0939    0.2950 C   0  0  0  0  0  0  0  0  0  0  0  0
    2.3920    0.0940   -0.2949 C   0  0  0  0  0  0  0  0  0  0  0  0
   -2.2816   -1.2402    0.4162 O   0  0  0  0  0  0  0  0  0  0  0  0
   -3.6161   -1.7471    0.4338 C   0  0  0  0  0  0  0  0  0  0  0  0
   -4.4988   -0.4790    0.5387 C   0  0  1  0  0  0  0  0  0  0  0  0
   -3.5491    0.6153    0.3384 N   0  0  0  0  0  0  0  0  0  0  0  0
    3.5491    0.6154   -0.3380 N   0  0  0  0  0  0  0  0  0  0  0  0
    4.4988   -0.4788   -0.5386 C   0  0  2  0  0  0  0  0  0  0  0  0
    3.6161   -1.7470   -0.4339 C   0  0  0  0  0  0  0  0  0  0  0  0
    2.2816   -1.2401   -0.4163 O   0  0  0  0  0  0  0  0  0  0  0  0
   -5.6584   -0.4449   -0.4597 C   0  0  0  0  0  0  0  0  0  0  0  0
    5.6585   -0.4450    0.4597 C   0  0  0  0  0  0  0  0  0  0  0  0
    6.6168   -1.6061    0.2020 C   0  0  0  0  0  0  0  0  0  0  0  0
   -6.6168   -1.6061   -0.2023 C   0  0  0  0  0  0  0  0  0  0  0  0
   -6.3847    0.8948   -0.4036 C   0  0  0  0  0  0  0  0  0  0  0  0
    6.3848    0.8947    0.4038 C   0  0  0  0  0  0  0  0  0  0  0  0
   -2.1562    2.7470    0.2636 H   0  0  0  0  0  0  0  0  0  0  0  0
    2.1561    2.7471   -0.2640 H   0  0  0  0  0  0  0  0  0  0  0  0
   -0.0001    4.0584   -0.0004 H   0  0  0  0  0  0  0  0  0  0  0  0
   -3.7201   -2.4433    1.2753 H   0  0  0  0  0  0  0  0  0  0  0  0
   -3.7922   -2.2932   -0.5079 H   0  0  0  0  0  0  0  0  0  0  0  0
   -4.9290   -0.3753    1.5528 H   0  0  0  0  0  0  0  0  0  0  0  0
    4.9289   -0.3749   -1.5527 H   0  0  0  0  0  0  0  0  0  0  0  0
    3.7201   -2.4431   -1.2755 H   0  0  0  0  0  0  0  0  0  0  0  0
    3.7923   -2.2933    0.5077 H   0  0  0  0  0  0  0  0  0  0  0  0
   -5.2143   -0.5636   -1.4644 H   0  0  0  0  0  0  0  0  0  0  0  0
    5.2144   -0.5639    1.4644 H   0  0  0  0  0  0  0  0  0  0  0  0
    7.0564   -1.5231   -0.8050 H   0  0  0  0  0  0  0  0  0  0  0  0
    7.4422   -1.6009    0.9281 H   0  0  0  0  0  0  0  0  0  0  0  0
    6.1170   -2.5839    0.2737 H   0  0  0  0  0  0  0  0  0  0  0  0
   -7.0565   -1.5232    0.8047 H   0  0  0  0  0  0  0  0  0  0  0  0
   -7.4421   -1.6007   -0.9284 H   0  0  0  0  0  0  0  0  0  0  0  0
   -6.1170   -2.5839   -0.2741 H   0  0  0  0  0  0  0  0  0  0  0  0
   -5.6864    1.7218   -0.5825 H   0  0  0  0  0  0  0  0  0  0  0  0
   -7.1895    0.9366   -1.1519 H   0  0  0  0  0  0  0  0  0  0  0  0
   -6.8392    1.0422    0.5895 H   0  0  0  0  0  0  0  0  0  0  0  0
    5.6865    1.7217    0.5830 H   0  0  0  0  0  0  0  0  0  0  0  0
    7.1896    0.9364    1.1519 H   0  0  0  0  0  0  0  0  0  0  0  0
    6.8391    1.0423   -0.5893 H   0  0  0  0  0  0  0  0  0  0  0  0
  1  2  2  0  0  0  0
  1  6  1  0  0  0  0
  1 23  1  0  0  0  0
  2  3  1  0  0  0  0
  2  7  1  0  0  0  0
  3  4  2  0  0  0  0
  4  5  1  0  0  0  0
  4  8  1  0  0  0  0
  5  6  2  0  0  0  0
  5 24  1  0  0  0  0
  6 25  1  0  0  0  0
  7  9  1  0  0  0  0
  7 12  2  0  0  0  0
  8 13  2  0  0  0  0
  8 16  1  0  0  0  0
  9 10  1  0  0  0  0
 10 11  1  0  0  0  0
 10 26  1  0  0  0  0
 10 27  1  0  0  0  0
 11 12  1  0  0  0  0
 11 17  1  0  0  0  0
 11 28  1  1  0  0  0
 13 14  1  0  0  0  0
 14 15  1  0  0  0  0
 14 18  1  0  0  0  0
 14 29  1  6  0  0  0
 15 16  1  0  0  0  0
 15 30  1  0  0  0  0
 15 31  1  0  0  0  0
 17 20  1  0  0  0  0
 17 21  1  0  0  0  0
 17 32  1  0  0  0  0
 18 19  1  0  0  0  0
 18 22  1  0  0  0  0
 18 33  1  0  0  0  0
 19 34  1  0  0  0  0
 19 35  1  0  0  0  0
 19 36  1  0  0  0  0
 20 37  1  0  0  0  0
 20 38  1  0  0  0  0
 20 39  1  0  0  0  0
 21 40  1  0  0  0  0
 21 41  1  0  0  0  0
 21 42  1  0  0  0  0
 22 43  1  0  0  0  0
 22 44  1  0  0  0  0
 22 45  1  0  0  0  0
M  END
$$$$
