Title Card Required
 OpenBabel03192317453D

 58 64  0  0  0  0  0  0  0  0999 V2000
   -0.9112   -0.1645    1.0636 O   0  0  0  0  0  0  0  0  0  0  0  0
    0.0019   -1.2723    0.2636 P   0  0  0  0  0  0  0  0  0  0  0  0
    0.8414   -0.2760   -0.7217 O   0  0  0  0  0  0  0  0  0  0  0  0
    1.4950    0.8009   -0.1792 C   0  0  0  0  0  0  0  0  0  0  0  0
    0.7636    1.9244    0.2397 C   0  0  0  0  0  0  0  0  0  0  0  0
   -0.7018    1.9652   -0.0036 C   0  0  0  0  0  0  0  0  0  0  0  0
   -1.5094    0.9008    0.4057 C   0  0  0  0  0  0  0  0  0  0  0  0
    2.8842    0.6719    0.0956 C   0  0  0  0  0  0  0  0  0  0  0  0
    3.5289    1.6807    0.7687 C   0  0  0  0  0  0  0  0  0  0  0  0
    2.8284    2.8337    1.2142 C   0  0  0  0  0  0  0  0  0  0  0  0
    3.4949    3.8682    1.9187 C   0  0  0  0  0  0  0  0  0  0  0  0
    2.7862    4.9473    2.4036 C   0  0  0  0  0  0  0  0  0  0  0  0
    1.3870    5.0142    2.2238 C   0  0  0  0  0  0  0  0  0  0  0  0
    0.7227    4.0289    1.5264 C   0  0  0  0  0  0  0  0  0  0  0  0
    1.4317    2.9366    0.9741 C   0  0  0  0  0  0  0  0  0  0  0  0
   -2.9027    0.8001    0.0675 C   0  0  0  0  0  0  0  0  0  0  0  0
   -3.4820    1.8610   -0.6281 C   0  0  0  0  0  0  0  0  0  0  0  0
   -2.7038    2.9683   -1.0623 C   0  0  0  0  0  0  0  0  0  0  0  0
   -3.3015    4.0040   -1.8259 C   0  0  0  0  0  0  0  0  0  0  0  0
   -2.5333    5.0214   -2.3452 C   0  0  0  0  0  0  0  0  0  0  0  0
   -1.1343    5.0179   -2.1452 C   0  0  0  0  0  0  0  0  0  0  0  0
   -0.5324    4.0341   -1.3920 C   0  0  0  0  0  0  0  0  0  0  0  0
   -1.3030    3.0028   -0.7871 C   0  0  0  0  0  0  0  0  0  0  0  0
   -0.9239   -2.0032   -0.7845 O   0  0  0  0  0  0  0  0  0  0  0  0
   -3.6689   -0.4705    0.3220 C   0  0  0  0  0  0  0  0  0  0  0  0
   -3.5602   -1.1956    1.5205 C   0  0  0  0  0  0  0  0  0  0  0  0
   -4.2953   -2.3650    1.6809 C   0  0  0  0  0  0  0  0  0  0  0  0
   -5.1331   -2.8448    0.6767 C   0  0  0  0  0  0  0  0  0  0  0  0
   -5.2402   -2.1131   -0.4957 C   0  0  0  0  0  0  0  0  0  0  0  0
   -4.5252   -0.9395   -0.6804 C   0  0  0  0  0  0  0  0  0  0  0  0
   -6.2577   -2.7003   -1.7703 Cl  0  0  0  0  0  0  0  0  0  0  0  0
   -4.1617   -3.2697    3.1518 Cl  0  0  0  0  0  0  0  0  0  0  0  0
    3.5944   -0.5846   -0.2782 C   0  0  0  0  0  0  0  0  0  0  0  0
    3.5965   -1.0197   -1.6141 C   0  0  0  0  0  0  0  0  0  0  0  0
    4.3195   -2.1545   -1.9562 C   0  0  0  0  0  0  0  0  0  0  0  0
    5.0411   -2.8739   -0.9975 C   0  0  0  0  0  0  0  0  0  0  0  0
    5.0491   -2.4217    0.3131 C   0  0  0  0  0  0  0  0  0  0  0  0
    4.3300   -1.2805    0.6817 C   0  0  0  0  0  0  0  0  0  0  0  0
    5.9465   -3.2930    1.5062 Cl  0  0  0  0  0  0  0  0  0  0  0  0
    4.3557   -2.6914   -3.6018 Cl  0  0  0  0  0  0  0  0  0  0  0  0
    0.7577   -2.1522    1.1733 O   0  0  0  0  0  0  0  0  0  0  0  0
    4.6001    1.5972    0.9589 H   0  0  0  0  0  0  0  0  0  0  0  0
    4.5704    3.7906    2.0868 H   0  0  0  0  0  0  0  0  0  0  0  0
    3.2951    5.7400    2.9542 H   0  0  0  0  0  0  0  0  0  0  0  0
    0.8311    5.8542    2.6420 H   0  0  0  0  0  0  0  0  0  0  0  0
   -0.3650    4.0737    1.4165 H   0  0  0  0  0  0  0  0  0  0  0  0
   -4.5407    1.8275   -0.8864 H   0  0  0  0  0  0  0  0  0  0  0  0
   -4.3759    3.9682   -2.0161 H   0  0  0  0  0  0  0  0  0  0  0  0
   -2.9867    5.8151   -2.9403 H   0  0  0  0  0  0  0  0  0  0  0  0
   -0.5297    5.7984   -2.6079 H   0  0  0  0  0  0  0  0  0  0  0  0
    0.5520    4.0341   -1.2848 H   0  0  0  0  0  0  0  0  0  0  0  0
   -1.3126   -1.3789   -1.4202 H   0  0  0  0  0  0  0  0  0  0  0  0
   -2.9194   -0.8434    2.3230 H   0  0  0  0  0  0  0  0  0  0  0  0
   -5.6894   -3.7702    0.8160 H   0  0  0  0  0  0  0  0  0  0  0  0
   -4.6181   -0.3961   -1.6199 H   0  0  0  0  0  0  0  0  0  0  0  0
    3.0849   -0.4279   -2.3740 H   0  0  0  0  0  0  0  0  0  0  0  0
    5.6004   -3.7647   -1.2814 H   0  0  0  0  0  0  0  0  0  0  0  0
    4.2970   -0.9549    1.7224 H   0  0  0  0  0  0  0  0  0  0  0  0
  1  2  1  0  0  0  0
  1  7  1  0  0  0  0
  2  3  1  0  0  0  0
  2 24  1  0  0  0  0
  2 41  2  0  0  0  0
  3  4  1  0  0  0  0
  4  5  2  0  0  0  0
  4  8  1  0  0  0  0
  5  6  1  0  0  0  0
  5 15  1  0  0  0  0
  6  7  2  0  0  0  0
  6 23  1  0  0  0  0
  7 16  1  0  0  0  0
  8  9  2  0  0  0  0
  8 33  1  0  0  0  0
  9 10  1  0  0  0  0
  9 42  1  0  0  0  0
 10 11  2  0  0  0  0
 10 15  1  0  0  0  0
 11 12  1  0  0  0  0
 11 43  1  0  0  0  0
 12 13  2  0  0  0  0
 12 44  1  0  0  0  0
 13 14  1  0  0  0  0
 13 45  1  0  0  0  0
 14 15  2  0  0  0  0
 14 46  1  0  0  0  0
 16 17  2  0  0  0  0
 16 25  1  0  0  0  0
 17 18  1  0  0  0  0
 17 47  1  0  0  0  0
 18 19  2  0  0  0  0
 18 23  1  0  0  0  0
 19 20  1  0  0  0  0
 19 48  1  0  0  0  0
 20 21  2  0  0  0  0
 20 49  1  0  0  0  0
 21 22  1  0  0  0  0
 21 50  1  0  0  0  0
 22 23  2  0  0  0  0
 22 51  1  0  0  0  0
 24 52  1  0  0  0  0
 25 26  2  0  0  0  0
 25 30  1  0  0  0  0
 26 27  1  0  0  0  0
 26 53  1  0  0  0  0
 27 28  2  0  0  0  0
 27 32  1  0  0  0  0
 28 29  1  0  0  0  0
 28 54  1  0  0  0  0
 29 30  2  0  0  0  0
 29 31  1  0  0  0  0
 30 55  1  0  0  0  0
 33 34  2  0  0  0  0
 33 38  1  0  0  0  0
 34 35  1  0  0  0  0
 34 56  1  0  0  0  0
 35 36  2  0  0  0  0
 35 40  1  0  0  0  0
 36 37  1  0  0  0  0
 36 57  1  0  0  0  0
 37 38  2  0  0  0  0
 37 39  1  0  0  0  0
 38 58  1  0  0  0  0
M  END
$$$$
