Title Card Required
 OpenBabel03192317463D

 64 69  0  0  0  0  0  0  0  0999 V2000
   -1.8193    1.9069    2.2775 C   0  0  0  0  0  0  0  0  0  0  0  0
   -0.6362    1.8143    1.4896 C   0  0  0  0  0  0  0  0  0  0  0  0
   -0.6257    0.9746    0.3337 C   0  0  0  0  0  0  0  0  0  0  0  0
   -1.7621    0.2625   -0.0040 C   0  0  0  0  0  0  0  0  0  0  0  0
   -2.9509    0.3327    0.7925 C   0  0  0  0  0  0  0  0  0  0  0  0
   -2.9574    1.1511    1.8988 C   0  0  0  0  0  0  0  0  0  0  0  0
   -1.8332    2.7441    3.4263 C   0  0  0  0  0  0  0  0  0  0  0  0
   -0.7238    3.4706    3.7798 C   0  0  0  0  0  0  0  0  0  0  0  0
    0.4505    3.3897    2.9910 C   0  0  0  0  0  0  0  0  0  0  0  0
    0.4953    2.5845    1.8788 C   0  0  0  0  0  0  0  0  0  0  0  0
    0.5877    0.8554   -0.5222 C   0  0  0  0  0  0  0  0  0  0  0  0
    0.6412    1.4507   -1.8197 C   0  0  0  0  0  0  0  0  0  0  0  0
    1.8284    1.3306   -2.5980 C   0  0  0  0  0  0  0  0  0  0  0  0
    2.9267    0.6078   -2.0680 C   0  0  0  0  0  0  0  0  0  0  0  0
    2.8765    0.0199   -0.8249 C   0  0  0  0  0  0  0  0  0  0  0  0
    1.6851    0.1644   -0.0421 C   0  0  0  0  0  0  0  0  0  0  0  0
   -0.4512    2.1819   -2.3641 C   0  0  0  0  0  0  0  0  0  0  0  0
   -0.3663    2.7513   -3.6115 C   0  0  0  0  0  0  0  0  0  0  0  0
    0.8125    2.6231   -4.3870 C   0  0  0  0  0  0  0  0  0  0  0  0
    1.8849    1.9277   -3.8866 C   0  0  0  0  0  0  0  0  0  0  0  0
   -1.7246   -0.4973   -1.1227 O   0  0  0  0  0  0  0  0  0  0  0  0
    1.6096   -0.3615    1.2021 O   0  0  0  0  0  0  0  0  0  0  0  0
   -4.1521   -0.4639    0.4272 C   0  0  0  0  0  0  0  0  0  0  0  0
    4.0330   -0.7488   -0.2929 C   0  0  0  0  0  0  0  0  0  0  0  0
   -4.0675   -1.8379    0.1745 C   0  0  0  0  0  0  0  0  0  0  0  0
   -5.1985   -2.5971   -0.1337 C   0  0  0  0  0  0  0  0  0  0  0  0
   -6.4519   -1.9802   -0.1886 C   0  0  0  0  0  0  0  0  0  0  0  0
   -5.4216    0.1371    0.3637 C   0  0  0  0  0  0  0  0  0  0  0  0
    5.3190   -0.2030   -0.2917 C   0  0  0  0  0  0  0  0  0  0  0  0
    6.4198   -0.9217    0.1760 C   0  0  0  0  0  0  0  0  0  0  0  0
    6.2430   -2.2209    0.6636 C   0  0  0  0  0  0  0  0  0  0  0  0
    4.9588   -2.7839    0.6701 C   0  0  0  0  0  0  0  0  0  0  0  0
    3.8754   -2.0594    0.1976 C   0  0  0  0  0  0  0  0  0  0  0  0
   -6.5529   -0.6040    0.0644 C   0  0  0  0  0  0  0  0  0  0  0  0
   -7.6036   -2.6212   -0.4765 O   0  0  0  0  0  0  0  0  0  0  0  0
   -7.5568   -4.0025   -0.7194 C   0  0  0  0  0  0  0  0  0  0  0  0
    7.2388   -2.9952    1.1427 O   0  0  0  0  0  0  0  0  0  0  0  0
    8.5412   -2.4727    1.1608 C   0  0  0  0  0  0  0  0  0  0  0  0
   -3.8557    1.2002    2.5194 H   0  0  0  0  0  0  0  0  0  0  0  0
   -2.7470    2.7967    4.0224 H   0  0  0  0  0  0  0  0  0  0  0  0
   -0.7425    4.1111    4.6627 H   0  0  0  0  0  0  0  0  0  0  0  0
    1.3281    3.9752    3.2706 H   0  0  0  0  0  0  0  0  0  0  0  0
    1.4014    2.5316    1.2738 H   0  0  0  0  0  0  0  0  0  0  0  0
    3.8281    0.4940   -2.6752 H   0  0  0  0  0  0  0  0  0  0  0  0
   -1.3604    2.2869   -1.7706 H   0  0  0  0  0  0  0  0  0  0  0  0
   -1.2151    3.3095   -4.0103 H   0  0  0  0  0  0  0  0  0  0  0  0
    0.8654    3.0785   -5.3769 H   0  0  0  0  0  0  0  0  0  0  0  0
    2.8020    1.8223   -4.4706 H   0  0  0  0  0  0  0  0  0  0  0  0
   -2.6166   -0.7980   -1.3390 H   0  0  0  0  0  0  0  0  0  0  0  0
    2.4836   -0.6620    1.4821 H   0  0  0  0  0  0  0  0  0  0  0  0
   -3.0972   -2.3362    0.2398 H   0  0  0  0  0  0  0  0  0  0  0  0
   -5.0876   -3.6652   -0.3146 H   0  0  0  0  0  0  0  0  0  0  0  0
   -5.5102    1.2100    0.5453 H   0  0  0  0  0  0  0  0  0  0  0  0
    5.4620    0.8157   -0.6581 H   0  0  0  0  0  0  0  0  0  0  0  0
    7.4042   -0.4562    0.1617 H   0  0  0  0  0  0  0  0  0  0  0  0
    4.8448   -3.8014    1.0447 H   0  0  0  0  0  0  0  0  0  0  0  0
    2.8842   -2.5190    0.1898 H   0  0  0  0  0  0  0  0  0  0  0  0
   -7.5395   -0.1432    0.0086 H   0  0  0  0  0  0  0  0  0  0  0  0
   -6.9263   -4.2387   -1.5928 H   0  0  0  0  0  0  0  0  0  0  0  0
   -7.1752   -4.5528    0.1567 H   0  0  0  0  0  0  0  0  0  0  0  0
   -8.5850   -4.3209   -0.9230 H   0  0  0  0  0  0  0  0  0  0  0  0
    8.8921   -2.2263    0.1448 H   0  0  0  0  0  0  0  0  0  0  0  0
    8.6045   -1.5700    1.7907 H   0  0  0  0  0  0  0  0  0  0  0  0
    9.1865   -3.2504    1.5835 H   0  0  0  0  0  0  0  0  0  0  0  0
  1  2  1  0  0  0  0
  1  6  2  0  0  0  0
  1  7  1  0  0  0  0
  2  3  2  0  0  0  0
  2 10  1  0  0  0  0
  3  4  1  0  0  0  0
  3 11  1  0  0  0  0
  4  5  2  0  0  0  0
  4 21  1  0  0  0  0
  5  6  1  0  0  0  0
  5 23  1  0  0  0  0
  6 39  1  0  0  0  0
  7  8  2  0  0  0  0
  7 40  1  0  0  0  0
  8  9  1  0  0  0  0
  8 41  1  0  0  0  0
  9 10  2  0  0  0  0
  9 42  1  0  0  0  0
 10 43  1  0  0  0  0
 11 12  2  0  0  0  0
 11 16  1  0  0  0  0
 12 13  1  0  0  0  0
 12 17  1  0  0  0  0
 13 14  2  0  0  0  0
 13 20  1  0  0  0  0
 14 15  1  0  0  0  0
 14 44  1  0  0  0  0
 15 16  2  0  0  0  0
 15 24  1  0  0  0  0
 16 22  1  0  0  0  0
 17 18  2  0  0  0  0
 17 45  1  0  0  0  0
 18 19  1  0  0  0  0
 18 46  1  0  0  0  0
 19 20  2  0  0  0  0
 19 47  1  0  0  0  0
 20 48  1  0  0  0  0
 21 49  1  0  0  0  0
 22 50  1  0  0  0  0
 23 25  2  0  0  0  0
 23 28  1  0  0  0  0
 24 29  2  0  0  0  0
 24 33  1  0  0  0  0
 25 26  1  0  0  0  0
 25 51  1  0  0  0  0
 26 27  2  0  0  0  0
 26 52  1  0  0  0  0
 27 34  1  0  0  0  0
 27 35  1  0  0  0  0
 28 34  2  0  0  0  0
 28 53  1  0  0  0  0
 29 30  1  0  0  0  0
 29 54  1  0  0  0  0
 30 31  2  0  0  0  0
 30 55  1  0  0  0  0
 31 32  1  0  0  0  0
 31 37  1  0  0  0  0
 32 33  2  0  0  0  0
 32 56  1  0  0  0  0
 33 57  1  0  0  0  0
 34 58  1  0  0  0  0
 35 36  1  0  0  0  0
 36 59  1  0  0  0  0
 36 60  1  0  0  0  0
 36 61  1  0  0  0  0
 37 38  1  0  0  0  0
 38 62  1  0  0  0  0
 38 63  1  0  0  0  0
 38 64  1  0  0  0  0
M  END
$$$$
