Title Card Required
 OpenBabel03192317523D

 53 55  0  0  1  0  0  0  0  0999 V2000
   -3.3283    1.0259    0.8804 C   0  0  0  0  0  0  0  0  0  0  0  0
   -4.3188    0.7872    1.8328 C   0  0  0  0  0  0  0  0  0  0  0  0
   -5.0404   -0.4041    1.8154 C   0  0  0  0  0  0  0  0  0  0  0  0
   -4.7742   -1.3493    0.8248 C   0  0  0  0  0  0  0  0  0  0  0  0
   -3.7867   -1.1093   -0.1277 C   0  0  0  0  0  0  0  0  0  0  0  0
   -3.0301    0.0723   -0.1027 C   0  0  0  0  0  0  0  0  0  0  0  0
   -0.1892    1.4733    0.6675 C   0  0  0  0  0  0  0  0  0  0  0  0
    0.6928    2.4154    1.1955 C   0  0  0  0  0  0  0  0  0  0  0  0
    1.1651    3.4609    0.4000 C   0  0  0  0  0  0  0  0  0  0  0  0
    0.7527    3.5596   -0.9278 C   0  0  0  0  0  0  0  0  0  0  0  0
   -0.1383    2.6207   -1.4508 C   0  0  0  0  0  0  0  0  0  0  0  0
   -0.6205    1.5668   -0.6638 C   0  0  0  0  0  0  0  0  0  0  0  0
   -1.8512    0.4455   -1.4703 P   0  0  0  0  0  0  0  0  0  0  0  0
   -0.7498   -2.3275    0.5057 C   0  0  0  0  0  0  0  0  0  0  0  0
    0.5065   -3.1551   -1.4954 C   0  0  0  0  0  0  0  0  0  0  0  0
   -0.0399   -1.9033   -0.7782 C   0  0  0  0  0  0  0  0  0  0  0  0
   -0.9541   -1.1662   -1.7786 C   0  0  0  0  0  0  0  0  0  0  0  0
    5.4172    0.0662    0.7127 C   0  0  0  0  0  0  0  0  0  0  0  0
    4.1700   -1.5478    2.1830 C   0  0  0  0  0  0  0  0  0  0  0  0
    4.2241   -0.8822    0.8116 C   0  0  0  0  0  0  0  0  0  0  0  0
    2.7978    0.3681   -0.9503 C   0  0  0  0  0  0  0  0  0  0  0  0
    2.9183   -0.1334    0.5115 C   0  0  1  0  0  0  0  0  0  0  0  0
    1.7460   -0.9907    0.6822 N   0  0  0  0  0  0  0  0  0  0  0  0
    1.1647   -1.0619   -0.4413 C   0  0  0  0  0  0  0  0  0  0  0  0
    1.6935   -0.3717   -1.4768 O   0  0  0  0  0  0  0  0  0  0  0  0
   -2.7792    1.9688    0.9082 H   0  0  0  0  0  0  0  0  0  0  0  0
   -4.5245    1.5419    2.5939 H   0  0  0  0  0  0  0  0  0  0  0  0
   -5.8119   -0.5919    2.5635 H   0  0  0  0  0  0  0  0  0  0  0  0
   -5.3416   -2.2810    0.7910 H   0  0  0  0  0  0  0  0  0  0  0  0
   -3.6043   -1.8617   -0.8983 H   0  0  0  0  0  0  0  0  0  0  0  0
   -0.5501    0.6642    1.3048 H   0  0  0  0  0  0  0  0  0  0  0  0
    1.0094    2.3318    2.2368 H   0  0  0  0  0  0  0  0  0  0  0  0
    1.8503    4.2006    0.8182 H   0  0  0  0  0  0  0  0  0  0  0  0
    1.1110    4.3769   -1.5557 H   0  0  0  0  0  0  0  0  0  0  0  0
   -0.4820    2.7131   -2.4836 H   0  0  0  0  0  0  0  0  0  0  0  0
   -1.5872   -3.0000    0.2682 H   0  0  0  0  0  0  0  0  0  0  0  0
   -0.0444   -2.8499    1.1648 H   0  0  0  0  0  0  0  0  0  0  0  0
   -1.1527   -1.4673    1.0562 H   0  0  0  0  0  0  0  0  0  0  0  0
    1.0662   -2.8758   -2.3994 H   0  0  0  0  0  0  0  0  0  0  0  0
    1.1767   -3.7137   -0.8261 H   0  0  0  0  0  0  0  0  0  0  0  0
   -0.3250   -3.8142   -1.7869 H   0  0  0  0  0  0  0  0  0  0  0  0
   -1.7473   -1.8618   -2.1001 H   0  0  0  0  0  0  0  0  0  0  0  0
   -0.3702   -0.9539   -2.6870 H   0  0  0  0  0  0  0  0  0  0  0  0
    5.3374    0.8571    1.4757 H   0  0  0  0  0  0  0  0  0  0  0  0
    6.3611   -0.4707    0.8845 H   0  0  0  0  0  0  0  0  0  0  0  0
    5.4851    0.5535   -0.2715 H   0  0  0  0  0  0  0  0  0  0  0  0
    3.3223   -2.2405    2.2495 H   0  0  0  0  0  0  0  0  0  0  0  0
    5.1006   -2.0967    2.3886 H   0  0  0  0  0  0  0  0  0  0  0  0
    4.0454   -0.7870    2.9707 H   0  0  0  0  0  0  0  0  0  0  0  0
    4.3277   -1.6689    0.0416 H   0  0  0  0  0  0  0  0  0  0  0  0
    2.5620    1.4400   -1.0228 H   0  0  0  0  0  0  0  0  0  0  0  0
    3.6862    0.1450   -1.5592 H   0  0  0  0  0  0  0  0  0  0  0  0
    2.8438    0.7100    1.2206 H   0  0  0  0  0  0  0  0  0  0  0  0
  1  2  2  0  0  0  0
  1  6  1  0  0  0  0
  1 26  1  0  0  0  0
  2  3  1  0  0  0  0
  2 27  1  0  0  0  0
  3  4  2  0  0  0  0
  3 28  1  0  0  0  0
  4  5  1  0  0  0  0
  4 29  1  0  0  0  0
  5  6  2  0  0  0  0
  5 30  1  0  0  0  0
  6 13  1  0  0  0  0
  7  8  2  0  0  0  0
  7 12  1  0  0  0  0
  7 31  1  0  0  0  0
  8  9  1  0  0  0  0
  8 32  1  0  0  0  0
  9 10  2  0  0  0  0
  9 33  1  0  0  0  0
 10 11  1  0  0  0  0
 10 34  1  0  0  0  0
 11 12  2  0  0  0  0
 11 35  1  0  0  0  0
 12 13  1  0  0  0  0
 13 17  1  0  0  0  0
 14 16  1  0  0  0  0
 14 36  1  0  0  0  0
 14 37  1  0  0  0  0
 14 38  1  0  0  0  0
 15 16  1  0  0  0  0
 15 39  1  0  0  0  0
 15 40  1  0  0  0  0
 15 41  1  0  0  0  0
 16 17  1  0  0  0  0
 16 24  1  0  0  0  0
 17 42  1  0  0  0  0
 17 43  1  0  0  0  0
 18 20  1  0  0  0  0
 18 44  1  0  0  0  0
 18 45  1  0  0  0  0
 18 46  1  0  0  0  0
 19 20  1  0  0  0  0
 19 47  1  0  0  0  0
 19 48  1  0  0  0  0
 19 49  1  0  0  0  0
 20 22  1  0  0  0  0
 20 50  1  0  0  0  0
 21 22  1  0  0  0  0
 21 25  1  0  0  0  0
 21 51  1  0  0  0  0
 21 52  1  0  0  0  0
 22 23  1  0  0  0  0
 22 53  1  1  0  0  0
 23 24  2  0  0  0  0
 24 25  1  0  0  0  0
M  END
$$$$
