Title Card Required
 OpenBabel03192317443D

 74 79  0  0  1  0  0  0  0  0999 V2000
   -4.0061   -0.6606   -2.1395 C   0  0  0  0  0  0  0  0  0  0  0  0
   -1.7946   -1.0367   -3.2205 C   0  0  0  0  0  0  0  0  0  0  0  0
   -2.5856    1.3047   -2.7193 C   0  0  0  0  0  0  0  0  0  0  0  0
    4.0905    1.0392    0.6222 C   0  0  0  0  0  0  0  0  0  0  0  0
    4.3841    2.2139    1.3342 C   0  0  0  0  0  0  0  0  0  0  0  0
    3.6316    3.3714    1.1550 C   0  0  0  0  0  0  0  0  0  0  0  0
    2.5717    3.3913    0.2493 C   0  0  0  0  0  0  0  0  0  0  0  0
    2.2768    2.2191   -0.4342 C   0  0  0  0  0  0  0  0  0  0  0  0
   -2.1492    2.0771    0.3872 C   0  0  0  0  0  0  0  0  0  0  0  0
   -2.7260    3.2247    0.9285 C   0  0  0  0  0  0  0  0  0  0  0  0
   -3.9608    3.0977    1.5592 C   0  0  0  0  0  0  0  0  0  0  0  0
   -4.5980    1.8600    1.6552 C   0  0  0  0  0  0  0  0  0  0  0  0
   -4.0172    0.7054    1.1095 C   0  0  0  0  0  0  0  0  0  0  0  0
   -0.3855    0.8281   -0.3770 C   0  0  2  0  0  0  0  0  0  0  0  0
    0.7091    0.8906   -1.4548 C   0  0  2  0  0  0  0  0  0  0  0  0
   -2.7795    0.8271    0.4578 C   0  0  0  0  0  0  0  0  0  0  0  0
    2.9771    1.0206   -0.2296 C   0  0  0  0  0  0  0  0  0  0  0  0
   -4.7230   -0.6004    1.2240 C   0  0  0  0  0  0  0  0  0  0  0  0
    5.0254   -0.1118    0.7292 C   0  0  0  0  0  0  0  0  0  0  0  0
   -2.5622   -0.1464   -2.2340 C   0  0  0  0  0  0  0  0  0  0  0  0
   -6.0926   -0.6914    0.9408 C   0  0  0  0  0  0  0  0  0  0  0  0
   -6.7602   -1.9106    1.0356 C   0  0  0  0  0  0  0  0  0  0  0  0
   -6.0698   -3.0585    1.4227 C   0  0  0  0  0  0  0  0  0  0  0  0
   -4.7095   -2.9769    1.7197 C   0  0  0  0  0  0  0  0  0  0  0  0
   -4.0414   -1.7587    1.6212 C   0  0  0  0  0  0  0  0  0  0  0  0
    5.2993   -0.7158    1.9617 C   0  0  0  0  0  0  0  0  0  0  0  0
    6.1862   -1.7887    2.0392 C   0  0  0  0  0  0  0  0  0  0  0  0
    6.8231   -2.2553    0.8892 C   0  0  0  0  0  0  0  0  0  0  0  0
    6.5748   -1.6406   -0.3383 C   0  0  0  0  0  0  0  0  0  0  0  0
    5.6791   -0.5771   -0.4187 C   0  0  0  0  0  0  0  0  0  0  0  0
   -1.8148   -0.4124   -0.5020 P   0  0  1  0  0  0  0  0  0  0  0  0
    2.2705   -0.2474   -1.3780 P   0  0  1  0  0  0  0  0  0  0  0  0
    1.2967    2.1830   -1.3725 O   0  0  0  0  0  0  0  0  0  0  0  0
   -0.9672    2.1302   -0.2603 O   0  0  0  0  0  0  0  0  0  0  0  0
    0.8991   -2.6156   -1.3005 C   0  0  0  0  0  0  0  0  0  0  0  0
    3.1863   -2.6850   -0.3901 C   0  0  0  0  0  0  0  0  0  0  0  0
    1.3787   -1.6944    1.0098 C   0  0  0  0  0  0  0  0  0  0  0  0
    1.8954   -1.8473   -0.4214 C   0  0  0  0  0  0  0  0  0  0  0  0
   -4.6303    0.0077   -1.5291 H   0  0  0  0  0  0  0  0  0  0  0  0
   -4.0599   -1.6707   -1.7025 H   0  0  0  0  0  0  0  0  0  0  0  0
   -4.4430   -0.7003   -3.1506 H   0  0  0  0  0  0  0  0  0  0  0  0
   -2.2424   -0.9392   -4.2227 H   0  0  0  0  0  0  0  0  0  0  0  0
   -0.7311   -0.7676   -3.3077 H   0  0  0  0  0  0  0  0  0  0  0  0
   -1.8506   -2.0961   -2.9275 H   0  0  0  0  0  0  0  0  0  0  0  0
   -3.1655    1.9429   -2.0367 H   0  0  0  0  0  0  0  0  0  0  0  0
   -1.5836    1.7434   -2.8165 H   0  0  0  0  0  0  0  0  0  0  0  0
   -3.0737    1.3440   -3.7075 H   0  0  0  0  0  0  0  0  0  0  0  0
    5.2454    2.2171    2.0043 H   0  0  0  0  0  0  0  0  0  0  0  0
    3.8850    4.2743    1.7126 H   0  0  0  0  0  0  0  0  0  0  0  0
    1.9717    4.2814    0.0630 H   0  0  0  0  0  0  0  0  0  0  0  0
   -2.2055    4.1788    0.8508 H   0  0  0  0  0  0  0  0  0  0  0  0
   -4.4299    3.9783    2.0011 H   0  0  0  0  0  0  0  0  0  0  0  0
   -5.5486    1.7765    2.1838 H   0  0  0  0  0  0  0  0  0  0  0  0
    0.0910    0.6173    0.5979 H   0  0  0  0  0  0  0  0  0  0  0  0
    0.2772    0.8276   -2.4595 H   0  0  0  0  0  0  0  0  0  0  0  0
   -6.6323    0.2024    0.6199 H   0  0  0  0  0  0  0  0  0  0  0  0
   -7.8243   -1.9648    0.8006 H   0  0  0  0  0  0  0  0  0  0  0  0
   -6.5912   -4.0141    1.4965 H   0  0  0  0  0  0  0  0  0  0  0  0
   -4.1637   -3.8676    2.0350 H   0  0  0  0  0  0  0  0  0  0  0  0
   -2.9792   -1.6987    1.8620 H   0  0  0  0  0  0  0  0  0  0  0  0
    4.7942   -0.3516    2.8590 H   0  0  0  0  0  0  0  0  0  0  0  0
    6.3792   -2.2644    3.0022 H   0  0  0  0  0  0  0  0  0  0  0  0
    7.5178   -3.0943    0.9510 H   0  0  0  0  0  0  0  0  0  0  0  0
    7.0794   -1.9942   -1.2389 H   0  0  0  0  0  0  0  0  0  0  0  0
    5.4735   -0.0987   -1.3793 H   0  0  0  0  0  0  0  0  0  0  0  0
    1.3126   -2.7864   -2.3068 H   0  0  0  0  0  0  0  0  0  0  0  0
    0.6977   -3.5979   -0.8439 H   0  0  0  0  0  0  0  0  0  0  0  0
   -0.0634   -2.1011   -1.3992 H   0  0  0  0  0  0  0  0  0  0  0  0
    3.8878   -2.3452    0.3805 H   0  0  0  0  0  0  0  0  0  0  0  0
    2.9106   -3.7254   -0.1530 H   0  0  0  0  0  0  0  0  0  0  0  0
    3.7037   -2.6837   -1.3612 H   0  0  0  0  0  0  0  0  0  0  0  0
    1.9970   -0.9885    1.5862 H   0  0  0  0  0  0  0  0  0  0  0  0
    0.3311   -1.3691    1.0427 H   0  0  0  0  0  0  0  0  0  0  0  0
    1.4269   -2.6729    1.5156 H   0  0  0  0  0  0  0  0  0  0  0  0
  1 20  1  0  0  0  0
  1 39  1  0  0  0  0
  1 40  1  0  0  0  0
  1 41  1  0  0  0  0
  2 20  1  0  0  0  0
  2 42  1  0  0  0  0
  2 43  1  0  0  0  0
  2 44  1  0  0  0  0
  3 20  1  0  0  0  0
  3 45  1  0  0  0  0
  3 46  1  0  0  0  0
  3 47  1  0  0  0  0
  4  5  2  0  0  0  0
  4 17  1  0  0  0  0
  4 19  1  0  0  0  0
  5  6  1  0  0  0  0
  5 48  1  0  0  0  0
  6  7  2  0  0  0  0
  6 49  1  0  0  0  0
  7  8  1  0  0  0  0
  7 50  1  0  0  0  0
  8 17  2  0  0  0  0
  8 33  1  0  0  0  0
  9 10  2  0  0  0  0
  9 16  1  0  0  0  0
  9 34  1  0  0  0  0
 10 11  1  0  0  0  0
 10 51  1  0  0  0  0
 11 12  2  0  0  0  0
 11 52  1  0  0  0  0
 12 13  1  0  0  0  0
 12 53  1  0  0  0  0
 13 16  2  0  0  0  0
 13 18  1  0  0  0  0
 14 15  1  0  0  0  0
 14 31  1  0  0  0  0
 14 34  1  0  0  0  0
 14 54  1  1  0  0  0
 15 32  1  0  0  0  0
 15 33  1  0  0  0  0
 15 55  1  6  0  0  0
 16 31  1  0  0  0  0
 17 32  1  0  0  0  0
 18 21  2  0  0  0  0
 18 25  1  0  0  0  0
 19 26  2  0  0  0  0
 19 30  1  0  0  0  0
 21 22  1  0  0  0  0
 21 56  1  0  0  0  0
 22 23  2  0  0  0  0
 22 57  1  0  0  0  0
 23 24  1  0  0  0  0
 23 58  1  0  0  0  0
 24 25  2  0  0  0  0
 24 59  1  0  0  0  0
 25 60  1  0  0  0  0
 26 27  1  0  0  0  0
 26 61  1  0  0  0  0
 27 28  2  0  0  0  0
 27 62  1  0  0  0  0
 28 29  1  0  0  0  0
 28 63  1  0  0  0  0
 29 30  2  0  0  0  0
 29 64  1  0  0  0  0
 30 65  1  0  0  0  0
 31 20  1  6  0  0  0
 32 38  1  1  0  0  0
 35 38  1  0  0  0  0
 35 66  1  0  0  0  0
 35 67  1  0  0  0  0
 35 68  1  0  0  0  0
 36 38  1  0  0  0  0
 36 69  1  0  0  0  0
 36 70  1  0  0  0  0
 36 71  1  0  0  0  0
 37 38  1  0  0  0  0
 37 72  1  0  0  0  0
 37 73  1  0  0  0  0
 37 74  1  0  0  0  0
M  END
$$$$
