Title Card Required
 OpenBabel03192317433D

 94102  0  0  1  0  0  0  0  0999 V2000
    0.6785    1.1728   -3.4535 C   0  0  0  0  0  0  0  0  0  0  0  0
   -0.8194    1.5498   -3.2606 C   0  0  0  0  0  0  0  0  0  0  0  0
   -0.6658    1.1201   -1.8608 C   0  0  0  0  0  0  0  0  0  0  0  0
    0.6568    0.7355   -2.0128 C   0  0  0  0  0  0  0  0  0  0  0  0
    1.5310    1.1603   -4.2888 O   0  0  0  0  0  0  0  0  0  0  0  0
   -1.7281    1.9651   -3.9256 O   0  0  0  0  0  0  0  0  0  0  0  0
    1.6419    0.2117   -1.2978 N   0  0  0  0  0  0  0  0  0  0  0  0
    1.6100    0.0793    0.1523 C   0  0  2  0  0  0  0  0  0  0  0  0
    3.8314    1.0082    0.9109 N   0  0  2  0  0  0  0  0  0  0  0  0
    2.3818    1.2103    0.8859 C   0  0  1  0  0  0  0  0  0  0  0  0
    2.0269    2.6371    0.3761 C   0  0  0  0  0  0  0  0  0  0  0  0
    3.3315    3.3313   -0.0342 C   0  0  1  0  0  0  0  0  0  0  0  0
    4.2362    3.4530    1.2193 C   0  0  1  0  0  0  0  0  0  0  0  0
    4.4154    2.0167    1.7929 C   0  0  0  0  0  0  0  0  0  0  0  0
    4.0289    2.4689   -1.0949 C   0  0  0  0  0  0  0  0  0  0  0  0
    4.4510    1.1461   -0.4066 C   0  0  0  0  0  0  0  0  0  0  0  0
    5.4977    4.2100    0.8914 C   0  0  0  0  0  0  0  0  0  0  0  0
    6.7540    3.7651    0.8741 C   0  0  0  0  0  0  0  0  0  0  0  0
    3.0853   -3.7454    1.6009 N   0  0  0  0  0  0  0  0  0  0  0  0
    3.3006   -3.3467    0.3781 C   0  0  0  0  0  0  0  0  0  0  0  0
    2.8149   -2.1255   -0.1578 C   0  0  0  0  0  0  0  0  0  0  0  0
    2.0740   -1.2810    0.6299 C   0  0  0  0  0  0  0  0  0  0  0  0
    1.7654   -1.7147    1.9589 C   0  0  0  0  0  0  0  0  0  0  0  0
    0.9001   -1.0102    2.8422 C   0  0  0  0  0  0  0  0  0  0  0  0
    0.6137   -1.5014    4.0934 C   0  0  0  0  0  0  0  0  0  0  0  0
    1.1831   -2.7212    4.5339 C   0  0  0  0  0  0  0  0  0  0  0  0
    2.0092   -3.4325    3.7001 C   0  0  0  0  0  0  0  0  0  0  0  0
    2.3069   -2.9600    2.3927 C   0  0  0  0  0  0  0  0  0  0  0  0
   -1.6169    0.9982   -0.8392 N   0  0  0  0  0  0  0  0  0  0  0  0
   -2.5278   -0.1600   -1.0503 C   0  0  2  0  0  0  0  0  0  0  0  0
   -3.8519    0.1232    1.1372 N   0  0  2  0  0  0  0  0  0  0  0  0
   -3.8748    0.0253   -0.3269 C   0  0  1  0  0  0  0  0  0  0  0  0
   -4.6880    1.2126   -0.9344 C   0  0  0  0  0  0  0  0  0  0  0  0
   -5.2175    2.0818    0.2113 C   0  0  1  0  0  0  0  0  0  0  0  0
   -6.1167    1.1985    1.1084 C   0  0  1  0  0  0  0  0  0  0  0  0
   -5.2271    0.0161    1.6172 C   0  0  0  0  0  0  0  0  0  0  0  0
   -4.0205    2.6045    1.0156 C   0  0  0  0  0  0  0  0  0  0  0  0
   -3.2873    1.3822    1.6310 C   0  0  0  0  0  0  0  0  0  0  0  0
   -6.7433    1.9642    2.2377 C   0  0  0  0  0  0  0  0  0  0  0  0
   -8.0423    2.2418    2.3413 C   0  0  0  0  0  0  0  0  0  0  0  0
   -0.4360   -3.8841   -0.1860 N   0  0  0  0  0  0  0  0  0  0  0  0
   -1.0956   -3.2300    0.7317 C   0  0  0  0  0  0  0  0  0  0  0  0
   -1.7774   -2.0073    0.5015 C   0  0  0  0  0  0  0  0  0  0  0  0
   -1.8138   -1.4717   -0.7654 C   0  0  0  0  0  0  0  0  0  0  0  0
   -1.1293   -2.1835   -1.8095 C   0  0  0  0  0  0  0  0  0  0  0  0
   -1.0984   -1.7842   -3.1786 C   0  0  0  0  0  0  0  0  0  0  0  0
   -0.3569   -2.4775   -4.1046 C   0  0  0  0  0  0  0  0  0  0  0  0
    0.3788   -3.6272   -3.7242 C   0  0  0  0  0  0  0  0  0  0  0  0
    0.3310   -4.0702   -2.4272 C   0  0  0  0  0  0  0  0  0  0  0  0
   -0.4251   -3.3714   -1.4453 C   0  0  0  0  0  0  0  0  0  0  0  0
    2.5171    0.0866   -1.7953 H   0  0  0  0  0  0  0  0  0  0  0  0
    0.5478    0.2057    0.4173 H   0  0  0  0  0  0  0  0  0  0  0  0
    2.0718    1.1225    1.9363 H   0  0  0  0  0  0  0  0  0  0  0  0
    1.3380    2.6086   -0.4807 H   0  0  0  0  0  0  0  0  0  0  0  0
    1.5260    3.2128    1.1692 H   0  0  0  0  0  0  0  0  0  0  0  0
    3.1179    4.3332   -0.4356 H   0  0  0  0  0  0  0  0  0  0  0  0
    3.6804    4.0677    1.9477 H   0  0  0  0  0  0  0  0  0  0  0  0
    5.4749    1.7711    1.9439 H   0  0  0  0  0  0  0  0  0  0  0  0
    3.9312    1.9325    2.7761 H   0  0  0  0  0  0  0  0  0  0  0  0
    4.9055    2.9896   -1.5044 H   0  0  0  0  0  0  0  0  0  0  0  0
    3.3371    2.2935   -1.9346 H   0  0  0  0  0  0  0  0  0  0  0  0
    5.5391    1.1298   -0.2480 H   0  0  0  0  0  0  0  0  0  0  0  0
    4.2407    0.2539   -1.0159 H   0  0  0  0  0  0  0  0  0  0  0  0
    5.3245    5.2567    0.6117 H   0  0  0  0  0  0  0  0  0  0  0  0
    7.5736    4.4289    0.5936 H   0  0  0  0  0  0  0  0  0  0  0  0
    7.0248    2.7406    1.1383 H   0  0  0  0  0  0  0  0  0  0  0  0
    3.9054   -4.0016   -0.2587 H   0  0  0  0  0  0  0  0  0  0  0  0
    3.0371   -1.8922   -1.1997 H   0  0  0  0  0  0  0  0  0  0  0  0
    0.4238   -0.0842    2.5167 H   0  0  0  0  0  0  0  0  0  0  0  0
   -0.0631   -0.9514    4.7490 H   0  0  0  0  0  0  0  0  0  0  0  0
    0.9523   -3.0972    5.5317 H   0  0  0  0  0  0  0  0  0  0  0  0
    2.4519   -4.3849    3.9929 H   0  0  0  0  0  0  0  0  0  0  0  0
   -2.1892    1.8434   -0.8426 H   0  0  0  0  0  0  0  0  0  0  0  0
   -2.8304   -0.1781   -2.1127 H   0  0  0  0  0  0  0  0  0  0  0  0
   -4.4131   -0.9102   -0.5440 H   0  0  0  0  0  0  0  0  0  0  0  0
   -4.0743    1.8195   -1.6218 H   0  0  0  0  0  0  0  0  0  0  0  0
   -5.5258    0.8278   -1.5346 H   0  0  0  0  0  0  0  0  0  0  0  0
   -5.8095    2.9187   -0.1853 H   0  0  0  0  0  0  0  0  0  0  0  0
   -6.9295    0.8067    0.4761 H   0  0  0  0  0  0  0  0  0  0  0  0
   -5.2062   -0.0002    2.7175 H   0  0  0  0  0  0  0  0  0  0  0  0
   -5.6397   -0.9486    1.2890 H   0  0  0  0  0  0  0  0  0  0  0  0
   -4.3496    3.3066    1.7949 H   0  0  0  0  0  0  0  0  0  0  0  0
   -3.3600    3.1820    0.3473 H   0  0  0  0  0  0  0  0  0  0  0  0
   -3.4059    1.3730    2.7251 H   0  0  0  0  0  0  0  0  0  0  0  0
   -2.2112    1.4009    1.4229 H   0  0  0  0  0  0  0  0  0  0  0  0
   -6.0643    2.3051    3.0301 H   0  0  0  0  0  0  0  0  0  0  0  0
   -8.4420    2.8052    3.1863 H   0  0  0  0  0  0  0  0  0  0  0  0
   -8.7524    1.9086    1.5792 H   0  0  0  0  0  0  0  0  0  0  0  0
   -1.0976   -3.6573    1.7407 H   0  0  0  0  0  0  0  0  0  0  0  0
   -2.2917   -1.5021    1.3188 H   0  0  0  0  0  0  0  0  0  0  0  0
   -1.6662   -0.9152   -3.5113 H   0  0  0  0  0  0  0  0  0  0  0  0
   -0.3417   -2.1421   -5.1427 H   0  0  0  0  0  0  0  0  0  0  0  0
    0.9651   -4.1658   -4.4702 H   0  0  0  0  0  0  0  0  0  0  0  0
    0.8608   -4.9641   -2.0957 H   0  0  0  0  0  0  0  0  0  0  0  0
  1  2  1  0  0  0  0
  1  4  1  0  0  0  0
  1  5  2  0  0  0  0
  2  3  1  0  0  0  0
  2  6  2  0  0  0  0
  3  4  2  0  0  0  0
  3 29  1  0  0  0  0
  4  7  1  0  0  0  0
  7  8  1  0  0  0  0
  7 51  1  0  0  0  0
  8 10  1  0  0  0  0
  8 22  1  0  0  0  0
  8 52  1  1  0  0  0
  9 10  1  0  0  0  0
  9 14  1  1  0  0  0
  9 16  1  0  0  0  0
 10 11  1  0  0  0  0
 10 53  1  1  0  0  0
 11 12  1  0  0  0  0
 11 54  1  0  0  0  0
 11 55  1  0  0  0  0
 12 13  1  0  0  0  0
 12 15  1  0  0  0  0
 12 56  1  6  0  0  0
 13 14  1  0  0  0  0
 13 17  1  0  0  0  0
 13 57  1  1  0  0  0
 14 58  1  0  0  0  0
 14 59  1  0  0  0  0
 15 16  1  0  0  0  0
 15 60  1  0  0  0  0
 15 61  1  0  0  0  0
 16 62  1  0  0  0  0
 16 63  1  0  0  0  0
 17 18  2  0  0  0  0
 17 64  1  0  0  0  0
 18 65  1  0  0  0  0
 18 66  1  0  0  0  0
 19 20  2  0  0  0  0
 19 28  1  0  0  0  0
 20 21  1  0  0  0  0
 20 67  1  0  0  0  0
 21 22  2  0  0  0  0
 21 68  1  0  0  0  0
 22 23  1  0  0  0  0
 23 24  2  0  0  0  0
 23 28  1  0  0  0  0
 24 25  1  0  0  0  0
 24 69  1  0  0  0  0
 25 26  2  0  0  0  0
 25 70  1  0  0  0  0
 26 27  1  0  0  0  0
 26 71  1  0  0  0  0
 27 28  2  0  0  0  0
 27 72  1  0  0  0  0
 29 30  1  0  0  0  0
 29 73  1  0  0  0  0
 30 32  1  0  0  0  0
 30 44  1  0  0  0  0
 30 74  1  6  0  0  0
 31 32  1  0  0  0  0
 31 36  1  6  0  0  0
 31 38  1  0  0  0  0
 32 33  1  0  0  0  0
 32 75  1  6  0  0  0
 33 34  1  0  0  0  0
 33 76  1  0  0  0  0
 33 77  1  0  0  0  0
 34 35  1  0  0  0  0
 34 37  1  0  0  0  0
 34 78  1  6  0  0  0
 35 36  1  0  0  0  0
 35 39  1  0  0  0  0
 35 79  1  6  0  0  0
 36 80  1  0  0  0  0
 36 81  1  0  0  0  0
 37 38  1  0  0  0  0
 37 82  1  0  0  0  0
 37 83  1  0  0  0  0
 38 84  1  0  0  0  0
 38 85  1  0  0  0  0
 39 40  2  0  0  0  0
 39 86  1  0  0  0  0
 40 87  1  0  0  0  0
 40 88  1  0  0  0  0
 41 42  2  0  0  0  0
 41 50  1  0  0  0  0
 42 43  1  0  0  0  0
 42 89  1  0  0  0  0
 43 44  2  0  0  0  0
 43 90  1  0  0  0  0
 44 45  1  0  0  0  0
 45 46  2  0  0  0  0
 45 50  1  0  0  0  0
 46 47  1  0  0  0  0
 46 91  1  0  0  0  0
 47 48  2  0  0  0  0
 47 92  1  0  0  0  0
 48 49  1  0  0  0  0
 48 93  1  0  0  0  0
 49 50  2  0  0  0  0
 49 94  1  0  0  0  0
M  END
$$$$
