Title Card Required
 OpenBabel03192317563D

 56 59  0  0  1  0  0  0  0  0999 V2000
    0.1713   -1.5006    1.7977 C   0  0  0  0  0  0  0  0  0  0  0  0
   -1.3536   -1.5991    1.6710 C   0  0  0  0  0  0  0  0  0  0  0  0
   -1.1974   -1.2168    0.2442 C   0  0  0  0  0  0  0  0  0  0  0  0
    0.1746   -1.0179    0.3840 C   0  0  0  0  0  0  0  0  0  0  0  0
    0.9719   -1.7102    2.6657 O   0  0  0  0  0  0  0  0  0  0  0  0
   -2.2826   -1.8464    2.3882 O   0  0  0  0  0  0  0  0  0  0  0  0
    1.0651   -0.5664   -0.5418 N   0  0  0  0  0  0  0  0  0  0  0  0
    2.4496   -0.4065   -0.4462 C   0  0  0  0  0  0  0  0  0  0  0  0
    3.1751   -0.7675    0.6952 C   0  0  0  0  0  0  0  0  0  0  0  0
    4.5540   -0.5774    0.7169 C   0  0  0  0  0  0  0  0  0  0  0  0
    5.2175   -0.0369   -0.3814 C   0  0  0  0  0  0  0  0  0  0  0  0
    4.4945    0.3188   -1.5218 C   0  0  0  0  0  0  0  0  0  0  0  0
    3.1213    0.1363   -1.5548 C   0  0  0  0  0  0  0  0  0  0  0  0
    6.7005    0.1969   -0.3617 C   0  0  0  0  0  0  0  0  0  0  0  0
    7.2770   -0.3303    0.7187 F   0  0  0  0  0  0  0  0  0  0  0  0
    7.2935   -0.3341   -1.4365 F   0  0  0  0  0  0  0  0  0  0  0  0
    6.9929    1.5018   -0.3738 F   0  0  0  0  0  0  0  0  0  0  0  0
   -2.0773   -1.0491   -0.7455 N   0  0  0  0  0  0  0  0  0  0  0  0
   -3.5234   -1.0319   -0.5433 C   0  0  1  0  0  0  0  0  0  0  0  0
   -4.0924    0.3556   -0.9115 C   0  0  1  0  0  0  0  0  0  0  0  0
   -5.6165    0.3604   -0.7380 C   0  0  0  0  0  0  0  0  0  0  0  0
   -6.2886   -0.7537   -1.5374 C   0  0  0  0  0  0  0  0  0  0  0  0
   -5.7204   -2.1184   -1.1549 C   0  0  0  0  0  0  0  0  0  0  0  0
   -4.2049   -2.1464   -1.3391 C   0  0  0  0  0  0  0  0  0  0  0  0
   -3.4752    1.4780   -0.2267 N   0  0  0  0  0  0  0  0  0  0  0  0
   -3.3854    1.3890    1.2219 C   0  0  0  0  0  0  0  0  0  0  0  0
   -3.1888    2.7731    1.8328 C   0  0  0  0  0  0  0  0  0  0  0  0
   -1.9571    3.4491    1.2343 C   0  0  0  0  0  0  0  0  0  0  0  0
   -2.0562    3.4699   -0.2897 C   0  0  0  0  0  0  0  0  0  0  0  0
   -2.2868    2.0582   -0.8223 C   0  0  0  0  0  0  0  0  0  0  0  0
    0.6638   -0.2449   -1.4150 H   0  0  0  0  0  0  0  0  0  0  0  0
    2.6677   -1.1889    1.5636 H   0  0  0  0  0  0  0  0  0  0  0  0
    5.1207   -0.8575    1.6053 H   0  0  0  0  0  0  0  0  0  0  0  0
    5.0103    0.7390   -2.3870 H   0  0  0  0  0  0  0  0  0  0  0  0
    2.5574    0.4155   -2.4477 H   0  0  0  0  0  0  0  0  0  0  0  0
   -1.7441   -0.7898   -1.6680 H   0  0  0  0  0  0  0  0  0  0  0  0
   -3.6832   -1.2123    0.5320 H   0  0  0  0  0  0  0  0  0  0  0  0
   -3.8933    0.5013   -1.9911 H   0  0  0  0  0  0  0  0  0  0  0  0
   -5.8608    0.2354    0.3303 H   0  0  0  0  0  0  0  0  0  0  0  0
   -5.9874    1.3512   -1.0360 H   0  0  0  0  0  0  0  0  0  0  0  0
   -7.3765   -0.7305   -1.3780 H   0  0  0  0  0  0  0  0  0  0  0  0
   -6.1241   -0.5807   -2.6152 H   0  0  0  0  0  0  0  0  0  0  0  0
   -5.9579   -2.3293   -0.0984 H   0  0  0  0  0  0  0  0  0  0  0  0
   -6.1875   -2.9171   -1.7493 H   0  0  0  0  0  0  0  0  0  0  0  0
   -3.9612   -2.0155   -2.4095 H   0  0  0  0  0  0  0  0  0  0  0  0
   -3.7841   -3.1143   -1.0290 H   0  0  0  0  0  0  0  0  0  0  0  0
   -2.5429    0.7373    1.5423 H   0  0  0  0  0  0  0  0  0  0  0  0
   -4.3023    0.9291    1.6177 H   0  0  0  0  0  0  0  0  0  0  0  0
   -3.0951    2.6845    2.9252 H   0  0  0  0  0  0  0  0  0  0  0  0
   -4.0837    3.3799    1.6203 H   0  0  0  0  0  0  0  0  0  0  0  0
   -1.8360    4.4672    1.6323 H   0  0  0  0  0  0  0  0  0  0  0  0
   -1.0564    2.8817    1.5292 H   0  0  0  0  0  0  0  0  0  0  0  0
   -2.9046    4.1017   -0.5978 H   0  0  0  0  0  0  0  0  0  0  0  0
   -1.1433    3.8919   -0.7366 H   0  0  0  0  0  0  0  0  0  0  0  0
   -2.4185    2.0817   -1.9158 H   0  0  0  0  0  0  0  0  0  0  0  0
   -1.3709    1.4574   -0.6098 H   0  0  0  0  0  0  0  0  0  0  0  0
  1  2  1  0  0  0  0
  1  4  1  0  0  0  0
  1  5  2  0  0  0  0
  2  3  1  0  0  0  0
  2  6  2  0  0  0  0
  3  4  2  0  0  0  0
  3 18  1  0  0  0  0
  4  7  1  0  0  0  0
  7  8  1  0  0  0  0
  7 31  1  0  0  0  0
  8  9  2  0  0  0  0
  8 13  1  0  0  0  0
  9 10  1  0  0  0  0
  9 32  1  0  0  0  0
 10 11  2  0  0  0  0
 10 33  1  0  0  0  0
 11 12  1  0  0  0  0
 11 14  1  0  0  0  0
 12 13  2  0  0  0  0
 12 34  1  0  0  0  0
 13 35  1  0  0  0  0
 14 15  1  0  0  0  0
 14 16  1  0  0  0  0
 14 17  1  0  0  0  0
 18 19  1  0  0  0  0
 18 36  1  0  0  0  0
 19 20  1  0  0  0  0
 19 24  1  0  0  0  0
 19 37  1  1  0  0  0
 20 21  1  0  0  0  0
 20 25  1  0  0  0  0
 20 38  1  6  0  0  0
 21 22  1  0  0  0  0
 21 39  1  0  0  0  0
 21 40  1  0  0  0  0
 22 23  1  0  0  0  0
 22 41  1  0  0  0  0
 22 42  1  0  0  0  0
 23 24  1  0  0  0  0
 23 43  1  0  0  0  0
 23 44  1  0  0  0  0
 24 45  1  0  0  0  0
 24 46  1  0  0  0  0
 25 26  1  0  0  0  0
 25 30  1  0  0  0  0
 26 27  1  0  0  0  0
 26 47  1  0  0  0  0
 26 48  1  0  0  0  0
 27 28  1  0  0  0  0
 27 49  1  0  0  0  0
 27 50  1  0  0  0  0
 28 29  1  0  0  0  0
 28 51  1  0  0  0  0
 28 52  1  0  0  0  0
 29 30  1  0  0  0  0
 29 53  1  0  0  0  0
 29 54  1  0  0  0  0
 30 55  1  0  0  0  0
 30 56  1  0  0  0  0
M  END
$$$$
