Title Card Required
 OpenBabel03192317413D

 33 35  0  0  1  0  0  0  0  0999 V2000
    3.0991   -1.7424   -0.4136 C   0  0  0  0  0  0  0  0  0  0  0  0
    2.5186   -0.3700   -0.0721 C   0  0  1  0  0  0  0  0  0  0  0  0
    4.4928   -1.6717   -0.4153 O   0  0  0  0  0  0  0  0  0  0  0  0
   -1.9774   -2.5213    0.0017 C   0  0  0  0  0  0  0  0  0  0  0  0
   -3.3542   -2.4751    0.0611 C   0  0  0  0  0  0  0  0  0  0  0  0
   -4.0051   -1.2288    0.0930 C   0  0  0  0  0  0  0  0  0  0  0  0
   -3.2741   -0.0573    0.0630 C   0  0  0  0  0  0  0  0  0  0  0  0
   -1.8624   -0.0764   -0.0007 C   0  0  0  0  0  0  0  0  0  0  0  0
   -1.0484    1.1337   -0.0449 C   0  0  0  0  0  0  0  0  0  0  0  0
   -1.6313    2.4210   -0.0354 C   0  0  0  0  0  0  0  0  0  0  0  0
   -0.8612    3.5648   -0.0924 C   0  0  0  0  0  0  0  0  0  0  0  0
    0.5368    3.4630   -0.1715 C   0  0  0  0  0  0  0  0  0  0  0  0
    1.1328    2.2184   -0.1810 C   0  0  0  0  0  0  0  0  0  0  0  0
    0.3675    1.0289   -0.1101 C   0  0  0  0  0  0  0  0  0  0  0  0
    1.0047   -0.2807   -0.1071 C   0  0  0  0  0  0  0  0  0  0  0  0
    0.2231   -1.3939   -0.0765 C   0  0  0  0  0  0  0  0  0  0  0  0
   -1.2124   -1.3332   -0.0287 C   0  0  0  0  0  0  0  0  0  0  0  0
    3.0999    0.0112    1.2209 N   0  0  0  0  0  0  0  0  0  0  0  0
    2.7584   -2.0666   -1.4084 H   0  0  0  0  0  0  0  0  0  0  0  0
    2.7350   -2.4885    0.3225 H   0  0  0  0  0  0  0  0  0  0  0  0
    2.9386    0.3154   -0.8248 H   0  0  0  0  0  0  0  0  0  0  0  0
    4.7095   -1.1237    0.3555 H   0  0  0  0  0  0  0  0  0  0  0  0
   -1.4555   -3.4802   -0.0226 H   0  0  0  0  0  0  0  0  0  0  0  0
   -3.9363   -3.3974    0.0832 H   0  0  0  0  0  0  0  0  0  0  0  0
   -5.0940   -1.1848    0.1409 H   0  0  0  0  0  0  0  0  0  0  0  0
   -3.8093    0.8908    0.0884 H   0  0  0  0  0  0  0  0  0  0  0  0
   -2.7141    2.5240    0.0146 H   0  0  0  0  0  0  0  0  0  0  0  0
   -1.3404    4.5446   -0.0829 H   0  0  0  0  0  0  0  0  0  0  0  0
    1.1510    4.3626   -0.2298 H   0  0  0  0  0  0  0  0  0  0  0  0
    2.2181    2.1592   -0.2643 H   0  0  0  0  0  0  0  0  0  0  0  0
    0.6746   -2.3875   -0.0807 H   0  0  0  0  0  0  0  0  0  0  0  0
    2.9784    1.0039    1.4082 H   0  0  0  0  0  0  0  0  0  0  0  0
    2.6072   -0.4809    1.9669 H   0  0  0  0  0  0  0  0  0  0  0  0
  1  2  1  0  0  0  0
  1  3  1  0  0  0  0
  1 19  1  0  0  0  0
  1 20  1  0  0  0  0
  2 15  1  0  0  0  0
  2 18  1  0  0  0  0
  2 21  1  6  0  0  0
  3 22  1  0  0  0  0
  4  5  2  0  0  0  0
  4 17  1  0  0  0  0
  4 23  1  0  0  0  0
  5  6  1  0  0  0  0
  5 24  1  0  0  0  0
  6  7  2  0  0  0  0
  6 25  1  0  0  0  0
  7  8  1  0  0  0  0
  7 26  1  0  0  0  0
  8  9  2  0  0  0  0
  8 17  1  0  0  0  0
  9 10  1  0  0  0  0
  9 14  1  0  0  0  0
 10 11  2  0  0  0  0
 10 27  1  0  0  0  0
 11 12  1  0  0  0  0
 11 28  1  0  0  0  0
 12 13  2  0  0  0  0
 12 29  1  0  0  0  0
 13 14  1  0  0  0  0
 13 30  1  0  0  0  0
 14 15  2  0  0  0  0
 15 16  1  0  0  0  0
 16 17  2  0  0  0  0
 16 31  1  0  0  0  0
 18 32  1  0  0  0  0
 18 33  1  0  0  0  0
M  END
$$$$
