Title Card Required
 OpenBabel03192317453D

 45 45  0  0  1  0  0  0  0  0999 V2000
   -3.2495   -1.1782    0.9248 C   0  0  0  0  0  0  0  0  0  0  0  0
   -2.6169   -1.0189   -0.4645 C   0  0  2  0  0  0  0  0  0  0  0  0
   -1.1998   -0.5095   -0.3296 C   0  0  0  0  0  0  0  0  0  0  0  0
   -0.9507    0.8654   -0.2136 C   0  0  0  0  0  0  0  0  0  0  0  0
    0.3453    1.3444   -0.0284 C   0  0  0  0  0  0  0  0  0  0  0  0
    1.3942    0.4117    0.0437 C   0  0  0  0  0  0  0  0  0  0  0  0
    1.1796   -0.9621   -0.0639 C   0  0  0  0  0  0  0  0  0  0  0  0
   -0.1387   -1.4050   -0.2524 C   0  0  0  0  0  0  0  0  0  0  0  0
    2.3151   -1.9886    0.0073 C   0  0  0  0  0  0  0  0  0  0  0  0
    2.0581   -2.9467    1.1816 C   0  0  0  0  0  0  0  0  0  0  0  0
    3.6797   -1.3259    0.2143 C   0  0  0  0  0  0  0  0  0  0  0  0
    2.3579   -2.7872   -1.3056 C   0  0  0  0  0  0  0  0  0  0  0  0
    0.6621    2.8386    0.0987 C   0  0  0  0  0  0  0  0  0  0  0  0
   -0.5991    3.7014    0.0027 C   0  0  0  0  0  0  0  0  0  0  0  0
    1.6193    3.2545   -1.0301 C   0  0  0  0  0  0  0  0  0  0  0  0
    1.3287    3.1031    1.4585 C   0  0  0  0  0  0  0  0  0  0  0  0
   -3.4515   -0.0879   -1.2179 N   0  0  0  0  0  0  0  0  0  0  0  0
   -4.6229   -1.4596    0.8413 O   0  0  0  0  0  0  0  0  0  0  0  0
   -2.7667   -2.0096    1.4591 H   0  0  0  0  0  0  0  0  0  0  0  0
   -3.0592   -0.2518    1.4972 H   0  0  0  0  0  0  0  0  0  0  0  0
   -2.5772   -2.0233   -0.9299 H   0  0  0  0  0  0  0  0  0  0  0  0
   -1.8015    1.5430   -0.2786 H   0  0  0  0  0  0  0  0  0  0  0  0
    2.4094    0.7829    0.1852 H   0  0  0  0  0  0  0  0  0  0  0  0
   -0.3466   -2.4744   -0.3501 H   0  0  0  0  0  0  0  0  0  0  0  0
    1.1057   -3.4830    1.0642 H   0  0  0  0  0  0  0  0  0  0  0  0
    2.8627   -3.6953    1.2474 H   0  0  0  0  0  0  0  0  0  0  0  0
    2.0206   -2.3943    2.1322 H   0  0  0  0  0  0  0  0  0  0  0  0
    3.9284   -0.6455   -0.6135 H   0  0  0  0  0  0  0  0  0  0  0  0
    3.7139   -0.7558    1.1544 H   0  0  0  0  0  0  0  0  0  0  0  0
    4.4612   -2.0985    0.2611 H   0  0  0  0  0  0  0  0  0  0  0  0
    2.5367   -2.1188   -2.1609 H   0  0  0  0  0  0  0  0  0  0  0  0
    3.1677   -3.5322   -1.2716 H   0  0  0  0  0  0  0  0  0  0  0  0
    1.4139   -3.3215   -1.4844 H   0  0  0  0  0  0  0  0  0  0  0  0
   -1.3148    3.4627    0.8028 H   0  0  0  0  0  0  0  0  0  0  0  0
   -0.3278    4.7632    0.0981 H   0  0  0  0  0  0  0  0  0  0  0  0
   -1.1064    3.5688   -0.9642 H   0  0  0  0  0  0  0  0  0  0  0  0
    2.5651    2.6960   -0.9862 H   0  0  0  0  0  0  0  0  0  0  0  0
    1.1624    3.0718   -2.0142 H   0  0  0  0  0  0  0  0  0  0  0  0
    1.8557    4.3269   -0.9522 H   0  0  0  0  0  0  0  0  0  0  0  0
    2.2716    2.5473    1.5626 H   0  0  0  0  0  0  0  0  0  0  0  0
    1.5540    4.1750    1.5693 H   0  0  0  0  0  0  0  0  0  0  0  0
    0.6646    2.8017    2.2819 H   0  0  0  0  0  0  0  0  0  0  0  0
   -2.9893    0.1727   -2.0874 H   0  0  0  0  0  0  0  0  0  0  0  0
   -4.3147   -0.5611   -1.4787 H   0  0  0  0  0  0  0  0  0  0  0  0
   -5.0578   -0.6367    0.5908 H   0  0  0  0  0  0  0  0  0  0  0  0
  1  2  1  0  0  0  0
  1 18  1  0  0  0  0
  1 19  1  0  0  0  0
  1 20  1  0  0  0  0
  2  3  1  0  0  0  0
  2 17  1  0  0  0  0
  2 21  1  6  0  0  0
  3  4  2  0  0  0  0
  3  8  1  0  0  0  0
  4  5  1  0  0  0  0
  4 22  1  0  0  0  0
  5  6  2  0  0  0  0
  5 13  1  0  0  0  0
  6  7  1  0  0  0  0
  6 23  1  0  0  0  0
  7  8  2  0  0  0  0
  7  9  1  0  0  0  0
  8 24  1  0  0  0  0
  9 10  1  0  0  0  0
  9 11  1  0  0  0  0
  9 12  1  0  0  0  0
 10 25  1  0  0  0  0
 10 26  1  0  0  0  0
 10 27  1  0  0  0  0
 11 28  1  0  0  0  0
 11 29  1  0  0  0  0
 11 30  1  0  0  0  0
 12 31  1  0  0  0  0
 12 32  1  0  0  0  0
 12 33  1  0  0  0  0
 13 14  1  0  0  0  0
 13 15  1  0  0  0  0
 13 16  1  0  0  0  0
 14 34  1  0  0  0  0
 14 35  1  0  0  0  0
 14 36  1  0  0  0  0
 15 37  1  0  0  0  0
 15 38  1  0  0  0  0
 15 39  1  0  0  0  0
 16 40  1  0  0  0  0
 16 41  1  0  0  0  0
 16 42  1  0  0  0  0
 17 43  1  0  0  0  0
 17 44  1  0  0  0  0
 18 45  1  0  0  0  0
M  END
$$$$
