Title Card Required
 OpenBabel03192317543D

 40 43  0  0  0  0  0  0  0  0999 V2000
    3.0066    0.6998    0.5373 C   0  0  0  0  0  0  0  0  0  0  0  0
    1.5858    0.8531    0.5825 C   0  0  0  0  0  0  0  0  0  0  0  0
    0.7401   -0.0769   -0.0930 C   0  0  0  0  0  0  0  0  0  0  0  0
    1.3031   -1.1387   -0.7875 C   0  0  0  0  0  0  0  0  0  0  0  0
    2.7287   -1.2934   -0.8269 C   0  0  0  0  0  0  0  0  0  0  0  0
    3.5453   -0.3864   -0.1808 C   0  0  0  0  0  0  0  0  0  0  0  0
   -0.7401    0.0768   -0.0930 C   0  0  0  0  0  0  0  0  0  0  0  0
   -1.5858   -0.8531    0.5825 C   0  0  0  0  0  0  0  0  0  0  0  0
   -3.0066   -0.6998    0.5373 C   0  0  0  0  0  0  0  0  0  0  0  0
   -3.5453    0.3864   -0.1808 C   0  0  0  0  0  0  0  0  0  0  0  0
   -2.7287    1.2934   -0.8269 C   0  0  0  0  0  0  0  0  0  0  0  0
   -1.3030    1.1387   -0.7875 C   0  0  0  0  0  0  0  0  0  0  0  0
    0.5059   -2.0110   -1.4081 O   0  0  0  0  0  0  0  0  0  0  0  0
   -0.5058    2.0110   -1.4080 O   0  0  0  0  0  0  0  0  0  0  0  0
    3.8439    1.6322    1.2134 C   0  0  0  0  0  0  0  0  0  0  0  0
    3.3030    2.6770    1.9151 C   0  0  0  0  0  0  0  0  0  0  0  0
    1.8929    2.8283    1.9704 C   0  0  0  0  0  0  0  0  0  0  0  0
    1.0597    1.9479    1.3268 C   0  0  0  0  0  0  0  0  0  0  0  0
   -1.0598   -1.9479    1.3268 C   0  0  0  0  0  0  0  0  0  0  0  0
   -1.8930   -2.8283    1.9704 C   0  0  0  0  0  0  0  0  0  0  0  0
   -3.3031   -2.6770    1.9151 C   0  0  0  0  0  0  0  0  0  0  0  0
   -3.8439   -1.6322    1.2134 C   0  0  0  0  0  0  0  0  0  0  0  0
    3.3371   -2.4099   -1.5582 C   0  0  0  0  0  0  0  0  0  0  0  0
    2.7132   -3.2648   -2.1538 O   0  0  0  0  0  0  0  0  0  0  0  0
   -3.3371    2.4099   -1.5582 C   0  0  0  0  0  0  0  0  0  0  0  0
   -2.7131    3.2647   -2.1539 O   0  0  0  0  0  0  0  0  0  0  0  0
    4.6306   -0.5161   -0.2254 H   0  0  0  0  0  0  0  0  0  0  0  0
   -4.6306    0.5161   -0.2254 H   0  0  0  0  0  0  0  0  0  0  0  0
    1.0610   -2.6912   -1.8405 H   0  0  0  0  0  0  0  0  0  0  0  0
   -1.0609    2.6914   -1.8403 H   0  0  0  0  0  0  0  0  0  0  0  0
    4.9260    1.4946    1.1615 H   0  0  0  0  0  0  0  0  0  0  0  0
    3.9470    3.3892    2.4320 H   0  0  0  0  0  0  0  0  0  0  0  0
    1.4646    3.6585    2.5345 H   0  0  0  0  0  0  0  0  0  0  0  0
   -0.0214    2.0764    1.3811 H   0  0  0  0  0  0  0  0  0  0  0  0
    0.0214   -2.0765    1.3811 H   0  0  0  0  0  0  0  0  0  0  0  0
   -1.4647   -3.6585    2.5345 H   0  0  0  0  0  0  0  0  0  0  0  0
   -3.9471   -3.3892    2.4320 H   0  0  0  0  0  0  0  0  0  0  0  0
   -4.9260   -1.4946    1.1615 H   0  0  0  0  0  0  0  0  0  0  0  0
    4.4503   -2.4413   -1.5416 H   0  0  0  0  0  0  0  0  0  0  0  0
   -4.4503    2.4414   -1.5415 H   0  0  0  0  0  0  0  0  0  0  0  0
  1  2  1  0  0  0  0
  1  6  2  0  0  0  0
  1 15  1  0  0  0  0
  2  3  2  0  0  0  0
  2 18  1  0  0  0  0
  3  4  1  0  0  0  0
  3  7  1  0  0  0  0
  4  5  2  0  0  0  0
  4 13  1  0  0  0  0
  5  6  1  0  0  0  0
  5 23  1  0  0  0  0
  6 27  1  0  0  0  0
  7  8  2  0  0  0  0
  7 12  1  0  0  0  0
  8  9  1  0  0  0  0
  8 19  1  0  0  0  0
  9 10  2  0  0  0  0
  9 22  1  0  0  0  0
 10 11  1  0  0  0  0
 10 28  1  0  0  0  0
 11 12  2  0  0  0  0
 11 25  1  0  0  0  0
 12 14  1  0  0  0  0
 13 29  1  0  0  0  0
 14 30  1  0  0  0  0
 15 16  2  0  0  0  0
 15 31  1  0  0  0  0
 16 17  1  0  0  0  0
 16 32  1  0  0  0  0
 17 18  2  0  0  0  0
 17 33  1  0  0  0  0
 18 34  1  0  0  0  0
 19 20  2  0  0  0  0
 19 35  1  0  0  0  0
 20 21  1  0  0  0  0
 20 36  1  0  0  0  0
 21 22  2  0  0  0  0
 21 37  1  0  0  0  0
 22 38  1  0  0  0  0
 23 24  2  0  0  0  0
 23 39  1  0  0  0  0
 25 26  2  0  0  0  0
 25 40  1  0  0  0  0
M  END
$$$$
