Title Card Required
 OpenBabel03192317443D

 29 31  0  0  1  0  0  0  0  0999 V2000
    0.7834    2.0331    0.0181 S   0  0  0  0  0  0  0  0  0  0  0  0
   -0.4772    0.8535    0.3865 C   0  0  0  0  0  0  0  0  0  0  0  0
    0.0438   -0.4303    0.3621 N   0  0  0  0  0  0  0  0  0  0  0  0
    1.3969   -0.5347    0.1454 C   0  0  0  0  0  0  0  0  0  0  0  0
    1.9836    0.7297   -0.0790 C   0  0  0  0  0  0  0  0  0  0  0  0
   -1.7062    0.9863    0.6646 N   0  0  0  0  0  0  0  0  0  0  0  0
   -2.2324   -0.3813    0.8225 C   0  0  2  0  0  0  0  0  0  0  0  0
   -0.9955   -1.3461    0.7843 C   0  0  0  0  0  0  0  0  0  0  0  0
    3.3420    0.8466   -0.3301 C   0  0  0  0  0  0  0  0  0  0  0  0
    4.1260   -0.3124   -0.3525 C   0  0  0  0  0  0  0  0  0  0  0  0
    3.5476   -1.5604   -0.1249 C   0  0  0  0  0  0  0  0  0  0  0  0
    2.1792   -1.6876    0.1258 C   0  0  0  0  0  0  0  0  0  0  0  0
   -3.2699   -0.6916   -0.2695 C   0  0  0  0  0  0  0  0  0  0  0  0
   -4.5071    0.1829   -0.0865 C   0  0  0  0  0  0  0  0  0  0  0  0
   -2.6824   -0.5243   -1.6694 C   0  0  0  0  0  0  0  0  0  0  0  0
   -2.7357   -0.4547    1.7991 H   0  0  0  0  0  0  0  0  0  0  0  0
   -1.1297   -2.1699    0.0654 H   0  0  0  0  0  0  0  0  0  0  0  0
   -0.7623   -1.7758    1.7722 H   0  0  0  0  0  0  0  0  0  0  0  0
    3.7909    1.8261   -0.5020 H   0  0  0  0  0  0  0  0  0  0  0  0
    5.1957   -0.2340   -0.5471 H   0  0  0  0  0  0  0  0  0  0  0  0
    4.1704   -2.4558   -0.1415 H   0  0  0  0  0  0  0  0  0  0  0  0
    1.7244   -2.6632    0.3019 H   0  0  0  0  0  0  0  0  0  0  0  0
   -3.5589   -1.7490   -0.1293 H   0  0  0  0  0  0  0  0  0  0  0  0
   -4.2217    1.2431   -0.1442 H   0  0  0  0  0  0  0  0  0  0  0  0
   -5.2555   -0.0228   -0.8653 H   0  0  0  0  0  0  0  0  0  0  0  0
   -4.9767    0.0118    0.8935 H   0  0  0  0  0  0  0  0  0  0  0  0
   -1.7577   -1.1059   -1.8073 H   0  0  0  0  0  0  0  0  0  0  0  0
   -3.4011   -0.8524   -2.4337 H   0  0  0  0  0  0  0  0  0  0  0  0
   -2.4452    0.5338   -1.8544 H   0  0  0  0  0  0  0  0  0  0  0  0
  1  2  1  0  0  0  0
  1  5  1  0  0  0  0
  2  3  1  0  0  0  0
  2  6  2  0  0  0  0
  3  4  1  0  0  0  0
  3  8  1  0  0  0  0
  4  5  2  0  0  0  0
  4 12  1  0  0  0  0
  5  9  1  0  0  0  0
  6  7  1  0  0  0  0
  7  8  1  0  0  0  0
  7 13  1  0  0  0  0
  7 16  1  1  0  0  0
  8 17  1  0  0  0  0
  8 18  1  0  0  0  0
  9 10  2  0  0  0  0
  9 19  1  0  0  0  0
 10 11  1  0  0  0  0
 10 20  1  0  0  0  0
 11 12  2  0  0  0  0
 11 21  1  0  0  0  0
 12 22  1  0  0  0  0
 13 14  1  0  0  0  0
 13 15  1  0  0  0  0
 13 23  1  0  0  0  0
 14 24  1  0  0  0  0
 14 25  1  0  0  0  0
 14 26  1  0  0  0  0
 15 27  1  0  0  0  0
 15 28  1  0  0  0  0
 15 29  1  0  0  0  0
M  END
$$$$
