Title Card Required
 OpenBabel03192317503D

 64 67  0  0  1  0  0  0  0  0999 V2000
    0.7122    0.5273    1.1078 C   0  0  2  0  0  0  0  0  0  0  0  0
   -0.7500    0.9013    0.7761 C   0  0  2  0  0  0  0  0  0  0  0  0
   -1.7199   -0.1344    1.3100 C   0  0  0  0  0  0  0  0  0  0  0  0
   -2.0124   -1.2912    0.5796 C   0  0  0  0  0  0  0  0  0  0  0  0
   -2.9098   -2.2290    1.0828 C   0  0  0  0  0  0  0  0  0  0  0  0
   -3.5206   -2.0230    2.3220 C   0  0  0  0  0  0  0  0  0  0  0  0
   -3.2266   -0.8765    3.0567 C   0  0  0  0  0  0  0  0  0  0  0  0
   -2.3290    0.0641    2.5499 C   0  0  0  0  0  0  0  0  0  0  0  0
   -3.5417    0.9797   -1.1717 C   0  0  0  0  0  0  0  0  0  0  0  0
   -4.4525    1.0640   -0.1231 C   0  0  0  0  0  0  0  0  0  0  0  0
   -5.4842    0.1337   -0.0563 C   0  0  0  0  0  0  0  0  0  0  0  0
   -5.6113   -0.8717   -1.0225 C   0  0  0  0  0  0  0  0  0  0  0  0
   -4.6952   -0.9087   -2.0826 C   0  0  0  0  0  0  0  0  0  0  0  0
   -3.6559    0.0129   -2.1664 C   0  0  0  0  0  0  0  0  0  0  0  0
   -2.1517    2.0773   -1.1868 S   0  0  0  0  0  0  0  0  0  0  0  0
   -2.4000    3.1146   -0.1960 O   0  0  0  0  0  0  0  0  0  0  0  0
   -1.8017    2.4119   -2.5549 O   0  0  0  0  0  0  0  0  0  0  0  0
   -0.8973    1.0907   -0.6636 N   0  0  0  0  0  0  0  0  0  0  0  0
   -6.6933   -1.9101   -0.9005 C   0  0  0  0  0  0  0  0  0  0  0  0
    4.0868    0.6625    0.2455 C   0  0  0  0  0  0  0  0  0  0  0  0
    4.3909    1.1132   -1.0348 C   0  0  0  0  0  0  0  0  0  0  0  0
    5.0885    0.2661   -1.8909 C   0  0  0  0  0  0  0  0  0  0  0  0
    5.4844   -1.0124   -1.4770 C   0  0  0  0  0  0  0  0  0  0  0  0
    5.1826   -1.4230   -0.1719 C   0  0  0  0  0  0  0  0  0  0  0  0
    4.4843   -0.5928    0.6976 C   0  0  0  0  0  0  0  0  0  0  0  0
    3.1232    1.6973    1.3097 S   0  0  0  0  0  0  0  0  0  0  0  0
    3.5153    3.0822    1.1248 O   0  0  0  0  0  0  0  0  0  0  0  0
    3.1032    1.0824    2.6277 O   0  0  0  0  0  0  0  0  0  0  0  0
    1.5722    1.6168    0.6368 N   0  0  0  0  0  0  0  0  0  0  0  0
    6.2089   -1.9403   -2.4143 C   0  0  0  0  0  0  0  0  0  0  0  0
    1.1574   -0.7995    0.5232 C   0  0  0  0  0  0  0  0  0  0  0  0
    1.2047   -1.9298    1.3411 C   0  0  0  0  0  0  0  0  0  0  0  0
    1.6035   -3.1629    0.8247 C   0  0  0  0  0  0  0  0  0  0  0  0
    1.9613   -3.2746   -0.5172 C   0  0  0  0  0  0  0  0  0  0  0  0
    1.9221   -2.1477   -1.3406 C   0  0  0  0  0  0  0  0  0  0  0  0
    1.5254   -0.9184   -0.8222 C   0  0  0  0  0  0  0  0  0  0  0  0
    0.7572    0.4472    2.2065 H   0  0  0  0  0  0  0  0  0  0  0  0
   -0.9519    1.8523    1.3033 H   0  0  0  0  0  0  0  0  0  0  0  0
   -1.5420   -1.4342   -0.3955 H   0  0  0  0  0  0  0  0  0  0  0  0
   -3.1390   -3.1243    0.5019 H   0  0  0  0  0  0  0  0  0  0  0  0
   -4.2268   -2.7572    2.7140 H   0  0  0  0  0  0  0  0  0  0  0  0
   -3.7019   -0.7084    4.0244 H   0  0  0  0  0  0  0  0  0  0  0  0
   -2.1116    0.9728    3.1173 H   0  0  0  0  0  0  0  0  0  0  0  0
   -4.3335    1.8433    0.6305 H   0  0  0  0  0  0  0  0  0  0  0  0
   -6.1974    0.1811    0.7692 H   0  0  0  0  0  0  0  0  0  0  0  0
   -4.7994   -1.6751   -2.8534 H   0  0  0  0  0  0  0  0  0  0  0  0
   -2.9357   -0.0117   -2.9858 H   0  0  0  0  0  0  0  0  0  0  0  0
   -0.0484    1.4227   -1.1253 H   0  0  0  0  0  0  0  0  0  0  0  0
   -6.8850   -2.4064   -1.8605 H   0  0  0  0  0  0  0  0  0  0  0  0
   -6.3961   -2.6833   -0.1744 H   0  0  0  0  0  0  0  0  0  0  0  0
   -7.6327   -1.4667   -0.5431 H   0  0  0  0  0  0  0  0  0  0  0  0
    4.0827    2.1122   -1.3481 H   0  0  0  0  0  0  0  0  0  0  0  0
    5.3351    0.6038   -2.8995 H   0  0  0  0  0  0  0  0  0  0  0  0
    5.4922   -2.4148    0.1650 H   0  0  0  0  0  0  0  0  0  0  0  0
    4.2269   -0.9058    1.7102 H   0  0  0  0  0  0  0  0  0  0  0  0
    1.1695    2.5477    0.7724 H   0  0  0  0  0  0  0  0  0  0  0  0
    7.1106   -2.3545   -1.9414 H   0  0  0  0  0  0  0  0  0  0  0  0
    5.5642   -2.7891   -2.6904 H   0  0  0  0  0  0  0  0  0  0  0  0
    6.5072   -1.4256   -3.3365 H   0  0  0  0  0  0  0  0  0  0  0  0
    0.9285   -1.8406    2.3943 H   0  0  0  0  0  0  0  0  0  0  0  0
    1.6355   -4.0381    1.4754 H   0  0  0  0  0  0  0  0  0  0  0  0
    2.2775   -4.2380   -0.9211 H   0  0  0  0  0  0  0  0  0  0  0  0
    2.2125   -2.2234   -2.3899 H   0  0  0  0  0  0  0  0  0  0  0  0
    1.5365   -0.0341   -1.4610 H   0  0  0  0  0  0  0  0  0  0  0  0
  1  2  1  0  0  0  0
  1 29  1  0  0  0  0
  1 31  1  0  0  0  0
  1 37  1  1  0  0  0
  2  3  1  0  0  0  0
  2 18  1  0  0  0  0
  2 38  1  1  0  0  0
  3  4  2  0  0  0  0
  3  8  1  0  0  0  0
  4  5  1  0  0  0  0
  4 39  1  0  0  0  0
  5  6  2  0  0  0  0
  5 40  1  0  0  0  0
  6  7  1  0  0  0  0
  6 41  1  0  0  0  0
  7  8  2  0  0  0  0
  7 42  1  0  0  0  0
  8 43  1  0  0  0  0
  9 10  2  0  0  0  0
  9 14  1  0  0  0  0
  9 15  1  0  0  0  0
 10 11  1  0  0  0  0
 10 44  1  0  0  0  0
 11 12  2  0  0  0  0
 11 45  1  0  0  0  0
 12 13  1  0  0  0  0
 12 19  1  0  0  0  0
 13 14  2  0  0  0  0
 13 46  1  0  0  0  0
 14 47  1  0  0  0  0
 15 16  2  0  0  0  0
 15 17  2  0  0  0  0
 15 18  1  0  0  0  0
 18 48  1  0  0  0  0
 19 49  1  0  0  0  0
 19 50  1  0  0  0  0
 19 51  1  0  0  0  0
 20 21  2  0  0  0  0
 20 25  1  0  0  0  0
 20 26  1  0  0  0  0
 21 22  1  0  0  0  0
 21 52  1  0  0  0  0
 22 23  2  0  0  0  0
 22 53  1  0  0  0  0
 23 24  1  0  0  0  0
 23 30  1  0  0  0  0
 24 25  2  0  0  0  0
 24 54  1  0  0  0  0
 25 55  1  0  0  0  0
 26 27  2  0  0  0  0
 26 28  2  0  0  0  0
 26 29  1  0  0  0  0
 29 56  1  0  0  0  0
 30 57  1  0  0  0  0
 30 58  1  0  0  0  0
 30 59  1  0  0  0  0
 31 32  2  0  0  0  0
 31 36  1  0  0  0  0
 32 33  1  0  0  0  0
 32 60  1  0  0  0  0
 33 34  2  0  0  0  0
 33 61  1  0  0  0  0
 34 35  1  0  0  0  0
 34 62  1  0  0  0  0
 35 36  2  0  0  0  0
 35 63  1  0  0  0  0
 36 64  1  0  0  0  0
M  END
$$$$
