Title Card Required
 OpenBabel03192317523D

 30 32  0  0  1  0  0  0  0  0999 V2000
   -2.9542   -0.1361   -0.5739 N   0  0  0  0  0  0  0  0  0  0  0  0
   -3.5892    0.9228   -1.1600 C   0  0  0  0  0  0  0  0  0  0  0  0
   -3.1736    2.0218   -0.4327 C   0  0  0  0  0  0  0  0  0  0  0  0
   -2.3033    1.6560    0.5606 N   0  0  0  0  0  0  0  0  0  0  0  0
   -2.1996    0.3562    0.4404 C   0  0  0  0  0  0  0  0  0  0  0  0
   -1.3667   -0.7456    1.0405 C   0  0  1  0  0  0  0  0  0  0  0  0
   -2.1158   -1.9904    0.5364 C   0  0  0  0  0  0  0  0  0  0  0  0
   -2.7832   -1.5634   -0.7884 C   0  0  0  0  0  0  0  0  0  0  0  0
   -0.0661   -0.7673    0.5006 O   0  0  0  0  0  0  0  0  0  0  0  0
    0.7382    0.3051    0.9276 C   0  0  0  0  0  0  0  0  0  0  0  0
    2.1177    0.1899    0.3322 C   0  0  0  0  0  0  0  0  0  0  0  0
    2.9615    1.3052    0.3244 C   0  0  0  0  0  0  0  0  0  0  0  0
    4.2542    1.2122   -0.1851 C   0  0  0  0  0  0  0  0  0  0  0  0
    4.7159    0.0014   -0.7020 C   0  0  0  0  0  0  0  0  0  0  0  0
    3.8761   -1.1108   -0.7041 C   0  0  0  0  0  0  0  0  0  0  0  0
    2.5836   -1.0193   -0.1879 C   0  0  0  0  0  0  0  0  0  0  0  0
   -4.2696    0.8221   -1.9995 H   0  0  0  0  0  0  0  0  0  0  0  0
   -3.4713    3.0579   -0.5778 H   0  0  0  0  0  0  0  0  0  0  0  0
   -1.3193   -0.6894    2.1421 H   0  0  0  0  0  0  0  0  0  0  0  0
   -1.4255   -2.8334    0.4154 H   0  0  0  0  0  0  0  0  0  0  0  0
   -2.8906   -2.2661    1.2648 H   0  0  0  0  0  0  0  0  0  0  0  0
   -2.1281   -1.7391   -1.6544 H   0  0  0  0  0  0  0  0  0  0  0  0
   -3.7461   -2.0613   -0.9625 H   0  0  0  0  0  0  0  0  0  0  0  0
    0.2801    1.2707    0.6494 H   0  0  0  0  0  0  0  0  0  0  0  0
    0.8112    0.2939    2.0344 H   0  0  0  0  0  0  0  0  0  0  0  0
    2.5983    2.2578    0.7186 H   0  0  0  0  0  0  0  0  0  0  0  0
    4.9018    2.0906   -0.1852 H   0  0  0  0  0  0  0  0  0  0  0  0
    5.7269   -0.0733   -1.1057 H   0  0  0  0  0  0  0  0  0  0  0  0
    4.2301   -2.0599   -1.1109 H   0  0  0  0  0  0  0  0  0  0  0  0
    1.9182   -1.8825   -0.1902 H   0  0  0  0  0  0  0  0  0  0  0  0
  1  2  1  0  0  0  0
  1  5  1  0  0  0  0
  1  8  1  0  0  0  0
  2  3  2  0  0  0  0
  2 17  1  0  0  0  0
  3  4  1  0  0  0  0
  3 18  1  0  0  0  0
  4  5  2  0  0  0  0
  5  6  1  0  0  0  0
  6  7  1  0  0  0  0
  6  9  1  0  0  0  0
  6 19  1  1  0  0  0
  7  8  1  0  0  0  0
  7 20  1  0  0  0  0
  7 21  1  0  0  0  0
  8 22  1  0  0  0  0
  8 23  1  0  0  0  0
  9 10  1  0  0  0  0
 10 11  1  0  0  0  0
 10 24  1  0  0  0  0
 10 25  1  0  0  0  0
 11 12  2  0  0  0  0
 11 16  1  0  0  0  0
 12 13  1  0  0  0  0
 12 26  1  0  0  0  0
 13 14  2  0  0  0  0
 13 27  1  0  0  0  0
 14 15  1  0  0  0  0
 14 28  1  0  0  0  0
 15 16  2  0  0  0  0
 15 29  1  0  0  0  0
 16 30  1  0  0  0  0
M  END
$$$$
