Title Card Required
 OpenBabel03192317483D

 48 49  0  0  1  0  0  0  0  0999 V2000
   -0.0215   -0.9503   -0.3936 N   0  0  0  0  0  0  0  0  0  0  0  0
   -1.1812   -0.1916   -0.5274 C   0  0  0  0  0  0  0  0  0  0  0  0
   -1.1877    1.0225   -0.5492 O   0  0  0  0  0  0  0  0  0  0  0  0
   -2.3153   -0.9403   -0.6447 N   0  0  0  0  0  0  0  0  0  0  0  0
   -3.6147   -0.2861   -0.7569 C   0  0  2  0  0  0  0  0  0  0  0  0
   -4.0673    0.2555    0.6307 C   0  0  2  0  0  0  0  0  0  0  0  0
   -4.5636   -0.8884    1.5264 C   0  0  0  0  0  0  0  0  0  0  0  0
   -5.5242   -1.8863    0.8663 C   0  0  0  0  0  0  0  0  0  0  0  0
   -4.9668   -2.4104   -0.4553 C   0  0  0  0  0  0  0  0  0  0  0  0
   -4.6180   -1.2499   -1.3877 C   0  0  0  0  0  0  0  0  0  0  0  0
   -4.9638    1.4000    0.5849 N   0  0  0  0  0  0  0  0  0  0  0  0
   -6.3866    1.2207    0.4538 C   0  0  0  0  0  0  0  0  0  0  0  0
   -4.4560    2.5172   -0.1780 C   0  0  0  0  0  0  0  0  0  0  0  0
    1.2846   -0.4882   -0.2347 C   0  0  0  0  0  0  0  0  0  0  0  0
    1.6275    0.8759   -0.1834 C   0  0  0  0  0  0  0  0  0  0  0  0
    2.9583    1.2360   -0.0195 C   0  0  0  0  0  0  0  0  0  0  0  0
    3.9781    0.2899    0.0965 C   0  0  0  0  0  0  0  0  0  0  0  0
    3.6277   -1.0517    0.0445 C   0  0  0  0  0  0  0  0  0  0  0  0
    2.3011   -1.4430   -0.1191 C   0  0  0  0  0  0  0  0  0  0  0  0
    4.6707   -2.1297    0.1829 C   0  0  0  0  0  0  0  0  0  0  0  0
    5.9028   -1.6290    0.2294 F   0  0  0  0  0  0  0  0  0  0  0  0
    4.4826   -2.8453    1.2944 F   0  0  0  0  0  0  0  0  0  0  0  0
    4.6187   -2.9872   -0.8401 F   0  0  0  0  0  0  0  0  0  0  0  0
    3.3409    2.6936    0.0375 C   0  0  0  0  0  0  0  0  0  0  0  0
    2.2853    3.4977   -0.0530 F   0  0  0  0  0  0  0  0  0  0  0  0
    3.9712    2.9784    1.1802 F   0  0  0  0  0  0  0  0  0  0  0  0
    4.1772    3.0106   -0.9540 F   0  0  0  0  0  0  0  0  0  0  0  0
   -0.1181   -1.9563   -0.4372 H   0  0  0  0  0  0  0  0  0  0  0  0
   -2.2849   -1.9445   -0.5310 H   0  0  0  0  0  0  0  0  0  0  0  0
   -3.4605    0.5738   -1.4226 H   0  0  0  0  0  0  0  0  0  0  0  0
   -3.1429    0.6453    1.0883 H   0  0  0  0  0  0  0  0  0  0  0  0
   -3.6717   -1.4498    1.8523 H   0  0  0  0  0  0  0  0  0  0  0  0
   -5.0031   -0.4556    2.4380 H   0  0  0  0  0  0  0  0  0  0  0  0
   -5.7146   -2.7198    1.5590 H   0  0  0  0  0  0  0  0  0  0  0  0
   -6.5010   -1.4213    0.6674 H   0  0  0  0  0  0  0  0  0  0  0  0
   -4.0731   -3.0318   -0.2590 H   0  0  0  0  0  0  0  0  0  0  0  0
   -5.6908   -3.0808   -0.9412 H   0  0  0  0  0  0  0  0  0  0  0  0
   -5.5357   -0.6855   -1.6148 H   0  0  0  0  0  0  0  0  0  0  0  0
   -4.2207   -1.6142   -2.3481 H   0  0  0  0  0  0  0  0  0  0  0  0
   -6.8746    2.1967    0.5977 H   0  0  0  0  0  0  0  0  0  0  0  0
   -6.7242    0.8355   -0.5341 H   0  0  0  0  0  0  0  0  0  0  0  0
   -6.7745    0.5527    1.2342 H   0  0  0  0  0  0  0  0  0  0  0  0
   -4.8893    3.4581    0.1972 H   0  0  0  0  0  0  0  0  0  0  0  0
   -3.3621    2.5680   -0.0763 H   0  0  0  0  0  0  0  0  0  0  0  0
   -4.6874    2.4593   -1.2636 H   0  0  0  0  0  0  0  0  0  0  0  0
    0.8543    1.6330   -0.2755 H   0  0  0  0  0  0  0  0  0  0  0  0
    5.0176    0.5921    0.2234 H   0  0  0  0  0  0  0  0  0  0  0  0
    2.0597   -2.5082   -0.1580 H   0  0  0  0  0  0  0  0  0  0  0  0
  1  2  1  0  0  0  0
  1 14  1  0  0  0  0
  1 28  1  0  0  0  0
  2  3  2  0  0  0  0
  2  4  1  0  0  0  0
  4  5  1  0  0  0  0
  4 29  1  0  0  0  0
  5  6  1  0  0  0  0
  5 10  1  0  0  0  0
  5 30  1  6  0  0  0
  6  7  1  0  0  0  0
  6 11  1  0  0  0  0
  6 31  1  1  0  0  0
  7  8  1  0  0  0  0
  7 32  1  0  0  0  0
  7 33  1  0  0  0  0
  8  9  1  0  0  0  0
  8 34  1  0  0  0  0
  8 35  1  0  0  0  0
  9 10  1  0  0  0  0
  9 36  1  0  0  0  0
  9 37  1  0  0  0  0
 10 38  1  0  0  0  0
 10 39  1  0  0  0  0
 11 12  1  0  0  0  0
 11 13  1  0  0  0  0
 12 40  1  0  0  0  0
 12 41  1  0  0  0  0
 12 42  1  0  0  0  0
 13 43  1  0  0  0  0
 13 44  1  0  0  0  0
 13 45  1  0  0  0  0
 14 15  2  0  0  0  0
 14 19  1  0  0  0  0
 15 16  1  0  0  0  0
 15 46  1  0  0  0  0
 16 17  2  0  0  0  0
 16 24  1  0  0  0  0
 17 18  1  0  0  0  0
 17 47  1  0  0  0  0
 18 19  2  0  0  0  0
 18 20  1  0  0  0  0
 19 48  1  0  0  0  0
 20 21  1  0  0  0  0
 20 22  1  0  0  0  0
 20 23  1  0  0  0  0
 24 25  1  0  0  0  0
 24 26  1  0  0  0  0
 24 27  1  0  0  0  0
M  END
$$$$
