Title Card Required
 OpenBabel03192317563D

 62 67  0  0  1  0  0  0  0  0999 V2000
    2.2014   -1.6945    0.2565 O   0  0  0  0  0  0  0  0  0  0  0  0
    1.0570   -0.9993    0.1106 C   0  0  0  0  0  0  0  0  0  0  0  0
    1.0092    0.1736    0.6322 N   0  0  0  0  0  0  0  0  0  0  0  0
    2.3386    0.4608    1.1552 C   0  0  1  0  0  0  0  0  0  0  0  0
    3.0028   -0.9655    1.1901 C   0  0  2  0  0  0  0  0  0  0  0  0
    0.0069   -1.6361   -0.6561 C   0  0  0  0  0  0  0  0  0  0  0  0
   -3.2850   -0.5797   -1.5464 C   0  0  1  0  0  0  0  0  0  0  0  0
   -2.6564    0.7916   -1.1247 C   0  0  2  0  0  0  0  0  0  0  0  0
   -1.4610    0.2970   -0.4692 N   0  0  0  0  0  0  0  0  0  0  0  0
   -1.1525   -0.9264   -0.9130 C   0  0  0  0  0  0  0  0  0  0  0  0
   -2.1306   -1.4211   -1.6726 O   0  0  0  0  0  0  0  0  0  0  0  0
    4.4600   -1.0316    0.8369 C   0  0  0  0  0  0  0  0  0  0  0  0
    4.1822    2.1474    0.8404 C   0  0  0  0  0  0  0  0  0  0  0  0
    3.0913    1.4609    0.2972 C   0  0  0  0  0  0  0  0  0  0  0  0
   -3.5242    1.6747   -0.2664 C   0  0  0  0  0  0  0  0  0  0  0  0
   -3.6380    1.4607    1.1101 C   0  0  0  0  0  0  0  0  0  0  0  0
   -4.2572   -1.1648   -0.5486 C   0  0  0  0  0  0  0  0  0  0  0  0
    4.9629    2.9836    0.0475 C   0  0  0  0  0  0  0  0  0  0  0  0
    4.6527    3.1542   -1.3023 C   0  0  0  0  0  0  0  0  0  0  0  0
    3.5549    2.4910   -1.8459 C   0  0  0  0  0  0  0  0  0  0  0  0
    2.7779    1.6479   -1.0503 C   0  0  0  0  0  0  0  0  0  0  0  0
   -4.2834    2.6782   -0.8712 C   0  0  0  0  0  0  0  0  0  0  0  0
   -5.1648    3.4497   -0.1149 C   0  0  0  0  0  0  0  0  0  0  0  0
   -5.2817    3.2272    1.2560 C   0  0  0  0  0  0  0  0  0  0  0  0
   -4.5128    2.2361    1.8669 C   0  0  0  0  0  0  0  0  0  0  0  0
    4.8694   -1.1003   -0.4971 C   0  0  0  0  0  0  0  0  0  0  0  0
    6.2233   -1.0393   -0.8155 C   0  0  0  0  0  0  0  0  0  0  0  0
    7.1782   -0.9124    0.1941 C   0  0  0  0  0  0  0  0  0  0  0  0
    6.7747   -0.8615    1.5269 C   0  0  0  0  0  0  0  0  0  0  0  0
    5.4189   -0.9263    1.8463 C   0  0  0  0  0  0  0  0  0  0  0  0
   -5.5690   -0.6810   -0.5092 C   0  0  0  0  0  0  0  0  0  0  0  0
   -6.4647   -1.1542    0.4447 C   0  0  0  0  0  0  0  0  0  0  0  0
   -6.0588   -2.1238    1.3629 C   0  0  0  0  0  0  0  0  0  0  0  0
   -4.7589   -2.6213    1.3147 C   0  0  0  0  0  0  0  0  0  0  0  0
   -3.8584   -2.1468    0.3596 C   0  0  0  0  0  0  0  0  0  0  0  0
    0.1442   -2.9717   -1.1334 C   0  0  0  0  0  0  0  0  0  0  0  0
    0.2442   -4.0566   -1.5214 N   0  0  0  0  0  0  0  0  0  0  0  0
    2.2766    0.8565    2.1795 H   0  0  0  0  0  0  0  0  0  0  0  0
    2.8381   -1.4096    2.1859 H   0  0  0  0  0  0  0  0  0  0  0  0
   -3.7498   -0.5050   -2.5374 H   0  0  0  0  0  0  0  0  0  0  0  0
   -2.3879    1.3451   -2.0419 H   0  0  0  0  0  0  0  0  0  0  0  0
   -0.7440    0.8231    0.0450 H   0  0  0  0  0  0  0  0  0  0  0  0
    4.4328    2.0100    1.8952 H   0  0  0  0  0  0  0  0  0  0  0  0
   -3.0470    0.6728    1.5815 H   0  0  0  0  0  0  0  0  0  0  0  0
    5.8171    3.5031    0.4844 H   0  0  0  0  0  0  0  0  0  0  0  0
    5.2640    3.8074   -1.9269 H   0  0  0  0  0  0  0  0  0  0  0  0
    3.3018    2.6269   -2.8987 H   0  0  0  0  0  0  0  0  0  0  0  0
    1.9178    1.1295   -1.4779 H   0  0  0  0  0  0  0  0  0  0  0  0
   -4.1853    2.8572   -1.9450 H   0  0  0  0  0  0  0  0  0  0  0  0
   -5.7544    4.2309   -0.5968 H   0  0  0  0  0  0  0  0  0  0  0  0
   -5.9672    3.8320    1.8515 H   0  0  0  0  0  0  0  0  0  0  0  0
   -4.5990    2.0615    2.9403 H   0  0  0  0  0  0  0  0  0  0  0  0
    4.1177   -1.2010   -1.2810 H   0  0  0  0  0  0  0  0  0  0  0  0
    6.5360   -1.0906   -1.8595 H   0  0  0  0  0  0  0  0  0  0  0  0
    8.2385   -0.8628   -0.0581 H   0  0  0  0  0  0  0  0  0  0  0  0
    7.5174   -0.7759    2.3216 H   0  0  0  0  0  0  0  0  0  0  0  0
    5.1021   -0.8897    2.8921 H   0  0  0  0  0  0  0  0  0  0  0  0
   -5.8868    0.0865   -1.2193 H   0  0  0  0  0  0  0  0  0  0  0  0
   -7.4840   -0.7666    0.4709 H   0  0  0  0  0  0  0  0  0  0  0  0
   -6.7607   -2.4980    2.1096 H   0  0  0  0  0  0  0  0  0  0  0  0
   -4.4393   -3.3908    2.0187 H   0  0  0  0  0  0  0  0  0  0  0  0
   -2.8486   -2.5583    0.3143 H   0  0  0  0  0  0  0  0  0  0  0  0
  1  2  1  0  0  0  0
  1  5  1  0  0  0  0
  2  3  2  0  0  0  0
  2  6  1  0  0  0  0
  3  4  1  0  0  0  0
  4  5  1  0  0  0  0
  4 14  1  0  0  0  0
  4 38  1  1  0  0  0
  5 12  1  0  0  0  0
  5 39  1  1  0  0  0
  6 10  2  0  0  0  0
  6 36  1  0  0  0  0
  7  8  1  0  0  0  0
  7 11  1  0  0  0  0
  7 17  1  0  0  0  0
  7 40  1  6  0  0  0
  8  9  1  0  0  0  0
  8 15  1  0  0  0  0
  8 41  1  6  0  0  0
  9 10  1  0  0  0  0
  9 42  1  0  0  0  0
 10 11  1  0  0  0  0
 12 26  2  0  0  0  0
 12 30  1  0  0  0  0
 13 14  2  0  0  0  0
 13 18  1  0  0  0  0
 13 43  1  0  0  0  0
 14 21  1  0  0  0  0
 15 16  2  0  0  0  0
 15 22  1  0  0  0  0
 16 25  1  0  0  0  0
 16 44  1  0  0  0  0
 17 31  2  0  0  0  0
 17 35  1  0  0  0  0
 18 19  2  0  0  0  0
 18 45  1  0  0  0  0
 19 20  1  0  0  0  0
 19 46  1  0  0  0  0
 20 21  2  0  0  0  0
 20 47  1  0  0  0  0
 21 48  1  0  0  0  0
 22 23  2  0  0  0  0
 22 49  1  0  0  0  0
 23 24  1  0  0  0  0
 23 50  1  0  0  0  0
 24 25  2  0  0  0  0
 24 51  1  0  0  0  0
 25 52  1  0  0  0  0
 26 27  1  0  0  0  0
 26 53  1  0  0  0  0
 27 28  2  0  0  0  0
 27 54  1  0  0  0  0
 28 29  1  0  0  0  0
 28 55  1  0  0  0  0
 29 30  2  0  0  0  0
 29 56  1  0  0  0  0
 30 57  1  0  0  0  0
 31 32  1  0  0  0  0
 31 58  1  0  0  0  0
 32 33  2  0  0  0  0
 32 59  1  0  0  0  0
 33 34  1  0  0  0  0
 33 60  1  0  0  0  0
 34 35  2  0  0  0  0
 34 61  1  0  0  0  0
 35 62  1  0  0  0  0
 36 37  3  0  0  0  0
M  END
$$$$
