Title Card Required
 OpenBabel03192317463D

 46 49  0  0  1  0  0  0  0  0999 V2000
   -2.4835   -0.5623   -1.2215 C   0  0  1  0  0  0  0  0  0  0  0  0
   -3.9968   -0.7876   -1.2939 C   0  0  0  0  0  0  0  0  0  0  0  0
   -4.7982    0.4454   -0.9163 C   0  0  0  0  0  0  0  0  0  0  0  0
   -4.5191    0.7635    0.5454 C   0  0  0  0  0  0  0  0  0  0  0  0
   -3.0352    0.8904    0.8210 C   0  0  0  0  0  0  0  0  0  0  0  0
   -2.6319    1.6425    1.9310 C   0  0  0  0  0  0  0  0  0  0  0  0
   -1.2895    1.8503    2.2113 C   0  0  0  0  0  0  0  0  0  0  0  0
   -0.3262    1.3269    1.3523 C   0  0  0  0  0  0  0  0  0  0  0  0
   -0.6989    0.5656    0.2399 C   0  0  0  0  0  0  0  0  0  0  0  0
   -2.0673    0.3078   -0.0221 C   0  0  0  0  0  0  0  0  0  0  0  0
    0.6019   -0.0247   -0.9468 P   0  0  0  0  0  0  0  0  0  0  0  0
    1.9823    1.1461   -0.5884 C   0  0  0  0  0  0  0  0  0  0  0  0
    3.0747    0.8581    0.2382 C   0  0  0  0  0  0  0  0  0  0  0  0
    4.0824    1.8045    0.4314 C   0  0  0  0  0  0  0  0  0  0  0  0
    4.0086    3.0483   -0.1925 C   0  0  0  0  0  0  0  0  0  0  0  0
    2.9242    3.3435   -1.0198 C   0  0  0  0  0  0  0  0  0  0  0  0
    1.9250    2.3952   -1.2224 C   0  0  0  0  0  0  0  0  0  0  0  0
    1.2154   -1.5628   -0.1297 C   0  0  0  0  0  0  0  0  0  0  0  0
    2.1405   -2.3352   -0.8462 C   0  0  0  0  0  0  0  0  0  0  0  0
    2.6500   -3.5155   -0.3097 C   0  0  0  0  0  0  0  0  0  0  0  0
    2.2244   -3.9516    0.9456 C   0  0  0  0  0  0  0  0  0  0  0  0
    1.2947   -3.1980    1.6599 C   0  0  0  0  0  0  0  0  0  0  0  0
    0.7950   -2.0073    1.1292 C   0  0  0  0  0  0  0  0  0  0  0  0
   -1.8372   -1.8668   -1.2946 N   0  0  0  0  0  0  0  0  0  0  0  0
   -2.1765   -0.0078   -2.1264 H   0  0  0  0  0  0  0  0  0  0  0  0
   -4.2484   -1.6083   -0.6000 H   0  0  0  0  0  0  0  0  0  0  0  0
   -4.2339   -1.1546   -2.3020 H   0  0  0  0  0  0  0  0  0  0  0  0
   -4.5018    1.3004   -1.5479 H   0  0  0  0  0  0  0  0  0  0  0  0
   -5.8735    0.2816   -1.0773 H   0  0  0  0  0  0  0  0  0  0  0  0
   -5.0184    1.6924    0.8590 H   0  0  0  0  0  0  0  0  0  0  0  0
   -4.9404   -0.0412    1.1735 H   0  0  0  0  0  0  0  0  0  0  0  0
   -3.3985    2.0811    2.5746 H   0  0  0  0  0  0  0  0  0  0  0  0
   -0.9894    2.4389    3.0797 H   0  0  0  0  0  0  0  0  0  0  0  0
    0.7297    1.5231    1.5465 H   0  0  0  0  0  0  0  0  0  0  0  0
    3.1410   -0.1103    0.7386 H   0  0  0  0  0  0  0  0  0  0  0  0
    4.9293    1.5661    1.0772 H   0  0  0  0  0  0  0  0  0  0  0  0
    4.7971    3.7869   -0.0393 H   0  0  0  0  0  0  0  0  0  0  0  0
    2.8610    4.3131   -1.5166 H   0  0  0  0  0  0  0  0  0  0  0  0
    1.0837    2.6255   -1.8818 H   0  0  0  0  0  0  0  0  0  0  0  0
    2.4671   -2.0042   -1.8359 H   0  0  0  0  0  0  0  0  0  0  0  0
    3.3737   -4.1020   -0.8778 H   0  0  0  0  0  0  0  0  0  0  0  0
    2.6146   -4.8807    1.3638 H   0  0  0  0  0  0  0  0  0  0  0  0
    0.9561   -3.5357    2.6410 H   0  0  0  0  0  0  0  0  0  0  0  0
    0.0746   -1.4181    1.7009 H   0  0  0  0  0  0  0  0  0  0  0  0
   -0.9401   -1.8392   -1.7678 H   0  0  0  0  0  0  0  0  0  0  0  0
   -1.6980   -2.2770   -0.3734 H   0  0  0  0  0  0  0  0  0  0  0  0
  1  2  1  0  0  0  0
  1 10  1  0  0  0  0
  1 24  1  0  0  0  0
  1 25  1  6  0  0  0
  2  3  1  0  0  0  0
  2 26  1  0  0  0  0
  2 27  1  0  0  0  0
  3  4  1  0  0  0  0
  3 28  1  0  0  0  0
  3 29  1  0  0  0  0
  4  5  1  0  0  0  0
  4 30  1  0  0  0  0
  4 31  1  0  0  0  0
  5  6  2  0  0  0  0
  5 10  1  0  0  0  0
  6  7  1  0  0  0  0
  6 32  1  0  0  0  0
  7  8  2  0  0  0  0
  7 33  1  0  0  0  0
  8  9  1  0  0  0  0
  8 34  1  0  0  0  0
  9 10  2  0  0  0  0
  9 11  1  0  0  0  0
 11 12  1  0  0  0  0
 11 18  1  0  0  0  0
 12 13  2  0  0  0  0
 12 17  1  0  0  0  0
 13 14  1  0  0  0  0
 13 35  1  0  0  0  0
 14 15  2  0  0  0  0
 14 36  1  0  0  0  0
 15 16  1  0  0  0  0
 15 37  1  0  0  0  0
 16 17  2  0  0  0  0
 16 38  1  0  0  0  0
 17 39  1  0  0  0  0
 18 19  2  0  0  0  0
 18 23  1  0  0  0  0
 19 20  1  0  0  0  0
 19 40  1  0  0  0  0
 20 21  2  0  0  0  0
 20 41  1  0  0  0  0
 21 22  1  0  0  0  0
 21 42  1  0  0  0  0
 22 23  2  0  0  0  0
 22 43  1  0  0  0  0
 23 44  1  0  0  0  0
 24 45  1  0  0  0  0
 24 46  1  0  0  0  0
M  END
$$$$
