Title Card Required
 OpenBabel03192317543D

 72 76  0  0  1  0  0  0  0  0999 V2000
   -2.9712    2.0744    1.1169 C   0  0  0  0  0  0  0  0  0  0  0  0
   -2.3105    2.2090    2.4992 C   0  0  0  0  0  0  0  0  0  0  0  0
   -1.0154    2.0989    1.8145 C   0  0  0  0  0  0  0  0  0  0  0  0
   -1.5758    1.9590    0.5482 C   0  0  0  0  0  0  0  0  0  0  0  0
   -4.0841    1.9844    0.6882 O   0  0  0  0  0  0  0  0  0  0  0  0
   -2.6418    2.2585    3.6516 O   0  0  0  0  0  0  0  0  0  0  0  0
   -1.0572    1.7252   -0.6689 N   0  0  0  0  0  0  0  0  0  0  0  0
   -1.7970    1.1739   -1.8033 C   0  0  1  0  0  0  0  0  0  0  0  0
   -2.2947   -0.2532   -1.4866 C   0  0  1  0  0  0  0  0  0  0  0  0
   -3.0354   -0.8317   -2.6965 C   0  0  0  0  0  0  0  0  0  0  0  0
   -4.1560    0.0920   -3.1701 C   0  0  0  0  0  0  0  0  0  0  0  0
   -3.6196    1.4835   -3.5004 C   0  0  0  0  0  0  0  0  0  0  0  0
   -2.9181    2.0917   -2.2873 C   0  0  0  0  0  0  0  0  0  0  0  0
   -1.2486   -1.1667   -1.0176 N   0  0  0  0  0  0  0  0  0  0  0  0
   -1.0245   -1.2907    0.4134 C   0  0  0  0  0  0  0  0  0  0  0  0
   -2.2782   -1.5670    1.2086 C   0  0  0  0  0  0  0  0  0  0  0  0
   -3.2551   -2.4409    0.7175 C   0  0  0  0  0  0  0  0  0  0  0  0
   -4.4102   -2.6944    1.4521 C   0  0  0  0  0  0  0  0  0  0  0  0
   -4.6082   -2.0761    2.6882 C   0  0  0  0  0  0  0  0  0  0  0  0
   -3.6354   -1.2162    3.1924 C   0  0  0  0  0  0  0  0  0  0  0  0
   -2.4753   -0.9730    2.4570 C   0  0  0  0  0  0  0  0  0  0  0  0
   -0.0101   -1.1541   -1.7679 C   0  0  0  0  0  0  0  0  0  0  0  0
    0.7821   -2.4328   -1.6032 C   0  0  0  0  0  0  0  0  0  0  0  0
    0.1875   -3.6633   -1.9025 C   0  0  0  0  0  0  0  0  0  0  0  0
    0.8995   -4.8484   -1.7385 C   0  0  0  0  0  0  0  0  0  0  0  0
    2.2131   -4.8188   -1.2651 C   0  0  0  0  0  0  0  0  0  0  0  0
    2.8103   -3.5985   -0.9582 C   0  0  0  0  0  0  0  0  0  0  0  0
    2.0943   -2.4126   -1.1292 C   0  0  0  0  0  0  0  0  0  0  0  0
    0.2167    1.9422    2.3777 N   0  0  0  0  0  0  0  0  0  0  0  0
    1.3774    1.6628    1.6535 C   0  0  0  0  0  0  0  0  0  0  0  0
    2.2349    0.6235    2.0432 C   0  0  0  0  0  0  0  0  0  0  0  0
    3.3362    0.3055    1.2582 C   0  0  0  0  0  0  0  0  0  0  0  0
    3.5972    0.9819    0.0650 C   0  0  0  0  0  0  0  0  0  0  0  0
    2.7461    2.0154   -0.3071 C   0  0  0  0  0  0  0  0  0  0  0  0
    1.6681    2.3888    0.4937 C   0  0  0  0  0  0  0  0  0  0  0  0
    2.9057    2.7067   -1.6363 C   0  0  0  0  0  0  0  0  0  0  0  0
    4.0652    2.4202   -2.2170 F   0  0  0  0  0  0  0  0  0  0  0  0
    1.9291    2.3192   -2.4707 F   0  0  0  0  0  0  0  0  0  0  0  0
    2.8133    4.0284   -1.5182 F   0  0  0  0  0  0  0  0  0  0  0  0
    4.2580   -0.8098    1.6874 C   0  0  0  0  0  0  0  0  0  0  0  0
    3.6176   -1.7214    2.4145 F   0  0  0  0  0  0  0  0  0  0  0  0
    4.7881   -1.4275    0.6272 F   0  0  0  0  0  0  0  0  0  0  0  0
    5.2690   -0.3491    2.4217 F   0  0  0  0  0  0  0  0  0  0  0  0
   -0.0676    1.5131   -0.6907 H   0  0  0  0  0  0  0  0  0  0  0  0
   -1.0517    1.1082   -2.6136 H   0  0  0  0  0  0  0  0  0  0  0  0
   -3.0295   -0.1507   -0.6701 H   0  0  0  0  0  0  0  0  0  0  0  0
   -2.3194   -0.9940   -3.5223 H   0  0  0  0  0  0  0  0  0  0  0  0
   -3.4289   -1.8208   -2.4195 H   0  0  0  0  0  0  0  0  0  0  0  0
   -4.6605   -0.3457   -4.0442 H   0  0  0  0  0  0  0  0  0  0  0  0
   -4.9135    0.1787   -2.3729 H   0  0  0  0  0  0  0  0  0  0  0  0
   -2.9090    1.4109   -4.3427 H   0  0  0  0  0  0  0  0  0  0  0  0
   -4.4347    2.1439   -3.8297 H   0  0  0  0  0  0  0  0  0  0  0  0
   -3.6470    2.2316   -1.4759 H   0  0  0  0  0  0  0  0  0  0  0  0
   -2.4891    3.0764   -2.5271 H   0  0  0  0  0  0  0  0  0  0  0  0
   -0.3306   -2.1362    0.5559 H   0  0  0  0  0  0  0  0  0  0  0  0
   -0.5069   -0.4085    0.8512 H   0  0  0  0  0  0  0  0  0  0  0  0
   -3.0984   -2.9112   -0.2556 H   0  0  0  0  0  0  0  0  0  0  0  0
   -5.1654   -3.3755    1.0560 H   0  0  0  0  0  0  0  0  0  0  0  0
   -5.5213   -2.2642    3.2547 H   0  0  0  0  0  0  0  0  0  0  0  0
   -3.7785   -0.7172    4.1520 H   0  0  0  0  0  0  0  0  0  0  0  0
   -1.7124   -0.3048    2.8638 H   0  0  0  0  0  0  0  0  0  0  0  0
   -0.2485   -1.0191   -2.8346 H   0  0  0  0  0  0  0  0  0  0  0  0
    0.6567   -0.3031   -1.4859 H   0  0  0  0  0  0  0  0  0  0  0  0
   -0.8475   -3.6786   -2.2527 H   0  0  0  0  0  0  0  0  0  0  0  0
    0.4272   -5.8031   -1.9759 H   0  0  0  0  0  0  0  0  0  0  0  0
    2.7670   -5.7492   -1.1315 H   0  0  0  0  0  0  0  0  0  0  0  0
    3.8314   -3.5616   -0.5763 H   0  0  0  0  0  0  0  0  0  0  0  0
    2.5594   -1.4552   -0.8808 H   0  0  0  0  0  0  0  0  0  0  0  0
    0.2135    1.7892    3.3819 H   0  0  0  0  0  0  0  0  0  0  0  0
    2.0104    0.0355    2.9347 H   0  0  0  0  0  0  0  0  0  0  0  0
    4.4366    0.6951   -0.5686 H   0  0  0  0  0  0  0  0  0  0  0  0
    1.0287    3.2258    0.2042 H   0  0  0  0  0  0  0  0  0  0  0  0
  1  2  1  0  0  0  0
  1  4  1  0  0  0  0
  1  5  2  0  0  0  0
  2  3  1  0  0  0  0
  2  6  2  0  0  0  0
  3  4  2  0  0  0  0
  3 29  1  0  0  0  0
  4  7  1  0  0  0  0
  7  8  1  0  0  0  0
  7 44  1  0  0  0  0
  8  9  1  0  0  0  0
  8 13  1  0  0  0  0
  8 45  1  6  0  0  0
  9 10  1  0  0  0  0
  9 14  1  0  0  0  0
  9 46  1  1  0  0  0
 10 11  1  0  0  0  0
 10 47  1  0  0  0  0
 10 48  1  0  0  0  0
 11 12  1  0  0  0  0
 11 49  1  0  0  0  0
 11 50  1  0  0  0  0
 12 13  1  0  0  0  0
 12 51  1  0  0  0  0
 12 52  1  0  0  0  0
 13 53  1  0  0  0  0
 13 54  1  0  0  0  0
 14 15  1  0  0  0  0
 14 22  1  0  0  0  0
 15 16  1  0  0  0  0
 15 55  1  0  0  0  0
 15 56  1  0  0  0  0
 16 17  2  0  0  0  0
 16 21  1  0  0  0  0
 17 18  1  0  0  0  0
 17 57  1  0  0  0  0
 18 19  2  0  0  0  0
 18 58  1  0  0  0  0
 19 20  1  0  0  0  0
 19 59  1  0  0  0  0
 20 21  2  0  0  0  0
 20 60  1  0  0  0  0
 21 61  1  0  0  0  0
 22 23  1  0  0  0  0
 22 62  1  0  0  0  0
 22 63  1  0  0  0  0
 23 24  2  0  0  0  0
 23 28  1  0  0  0  0
 24 25  1  0  0  0  0
 24 64  1  0  0  0  0
 25 26  2  0  0  0  0
 25 65  1  0  0  0  0
 26 27  1  0  0  0  0
 26 66  1  0  0  0  0
 27 28  2  0  0  0  0
 27 67  1  0  0  0  0
 28 68  1  0  0  0  0
 29 30  1  0  0  0  0
 29 69  1  0  0  0  0
 30 31  2  0  0  0  0
 30 35  1  0  0  0  0
 31 32  1  0  0  0  0
 31 70  1  0  0  0  0
 32 33  2  0  0  0  0
 32 40  1  0  0  0  0
 33 34  1  0  0  0  0
 33 71  1  0  0  0  0
 34 35  2  0  0  0  0
 34 36  1  0  0  0  0
 35 72  1  0  0  0  0
 36 37  1  0  0  0  0
 36 38  1  0  0  0  0
 36 39  1  0  0  0  0
 40 41  1  0  0  0  0
 40 42  1  0  0  0  0
 40 43  1  0  0  0  0
M  END
$$$$
