Title Card Required
 OpenBabel03192317523D

 62 65  0  0  1  0  0  0  0  0999 V2000
    3.7193    3.0063    0.3891 C   0  0  0  0  0  0  0  0  0  0  0  0
    2.6789    3.7139    1.2776 C   0  0  0  0  0  0  0  0  0  0  0  0
    1.7758    2.5796    0.9806 C   0  0  0  0  0  0  0  0  0  0  0  0
    2.6564    2.0070    0.0661 C   0  0  0  0  0  0  0  0  0  0  0  0
    4.8640    3.0956    0.0515 O   0  0  0  0  0  0  0  0  0  0  0  0
    2.5587    4.7096    1.9342 O   0  0  0  0  0  0  0  0  0  0  0  0
    2.8187    0.9829   -0.7841 N   0  0  0  0  0  0  0  0  0  0  0  0
    1.7949    0.2752   -1.5531 C   0  0  1  0  0  0  0  0  0  0  0  0
    1.3262   -1.0437   -0.9002 C   0  0  1  0  0  0  0  0  0  0  0  0
    0.3292   -1.7449   -1.8320 C   0  0  0  0  0  0  0  0  0  0  0  0
   -0.8523   -0.8429   -2.1829 C   0  0  0  0  0  0  0  0  0  0  0  0
   -0.3929    0.4788   -2.7941 C   0  0  0  0  0  0  0  0  0  0  0  0
    0.6120    1.1852   -1.8871 C   0  0  0  0  0  0  0  0  0  0  0  0
    2.3915   -1.9410   -0.4839 N   0  0  0  0  0  0  0  0  0  0  0  0
    3.4553   -2.1618   -1.4448 C   0  0  0  0  0  0  0  0  0  0  0  0
    4.2643   -3.4041   -1.0837 C   0  0  0  0  0  0  0  0  0  0  0  0
    4.8115   -3.2890    0.3370 C   0  0  0  0  0  0  0  0  0  0  0  0
    3.6727   -3.0032    1.3139 C   0  0  0  0  0  0  0  0  0  0  0  0
    2.8837   -1.7740    0.8728 C   0  0  0  0  0  0  0  0  0  0  0  0
    0.5165    2.3945    1.4779 N   0  0  0  0  0  0  0  0  0  0  0  0
    0.0850    1.0887    1.9398 C   0  0  0  0  0  0  0  0  0  0  0  0
   -1.2177    0.5948    1.3457 C   0  0  0  0  0  0  0  0  0  0  0  0
   -2.0552    1.4293    0.6024 C   0  0  0  0  0  0  0  0  0  0  0  0
   -3.2433    0.9330    0.0724 C   0  0  0  0  0  0  0  0  0  0  0  0
   -3.6231   -0.3934    0.2725 C   0  0  0  0  0  0  0  0  0  0  0  0
   -2.7810   -1.2227    1.0047 C   0  0  0  0  0  0  0  0  0  0  0  0
   -1.5911   -0.7346    1.5434 C   0  0  0  0  0  0  0  0  0  0  0  0
   -3.0908   -2.6883    1.1620 C   0  0  0  0  0  0  0  0  0  0  0  0
   -4.3321   -2.9799    0.7831 F   0  0  0  0  0  0  0  0  0  0  0  0
   -2.2585   -3.4280    0.4219 F   0  0  0  0  0  0  0  0  0  0  0  0
   -2.9421   -3.0845    2.4265 F   0  0  0  0  0  0  0  0  0  0  0  0
   -4.1014    1.8037   -0.8086 C   0  0  0  0  0  0  0  0  0  0  0  0
   -3.8088    3.0948   -0.6694 F   0  0  0  0  0  0  0  0  0  0  0  0
   -3.9263    1.4910   -2.0974 F   0  0  0  0  0  0  0  0  0  0  0  0
   -5.3969    1.6438   -0.5415 F   0  0  0  0  0  0  0  0  0  0  0  0
    3.7608    0.9590   -1.1665 H   0  0  0  0  0  0  0  0  0  0  0  0
    2.2850    0.0040   -2.5035 H   0  0  0  0  0  0  0  0  0  0  0  0
    0.7665   -0.7747    0.0106 H   0  0  0  0  0  0  0  0  0  0  0  0
    0.8492   -2.0518   -2.7566 H   0  0  0  0  0  0  0  0  0  0  0  0
   -0.0111   -2.6641   -1.3345 H   0  0  0  0  0  0  0  0  0  0  0  0
   -1.5403   -1.3633   -2.8654 H   0  0  0  0  0  0  0  0  0  0  0  0
   -1.4225   -0.6324   -1.2642 H   0  0  0  0  0  0  0  0  0  0  0  0
    0.0784    0.2864   -3.7734 H   0  0  0  0  0  0  0  0  0  0  0  0
   -1.2562    1.1343   -2.9809 H   0  0  0  0  0  0  0  0  0  0  0  0
    0.1175    1.4864   -0.9485 H   0  0  0  0  0  0  0  0  0  0  0  0
    0.9894    2.1072   -2.3561 H   0  0  0  0  0  0  0  0  0  0  0  0
    4.1527   -1.2923   -1.4946 H   0  0  0  0  0  0  0  0  0  0  0  0
    3.0169   -2.2797   -2.4472 H   0  0  0  0  0  0  0  0  0  0  0  0
    5.0793   -3.5388   -1.8102 H   0  0  0  0  0  0  0  0  0  0  0  0
    3.6030   -4.2823   -1.1556 H   0  0  0  0  0  0  0  0  0  0  0  0
    5.3521   -4.2032    0.6232 H   0  0  0  0  0  0  0  0  0  0  0  0
    5.5404   -2.4608    0.3788 H   0  0  0  0  0  0  0  0  0  0  0  0
    2.9882   -3.8661    1.3411 H   0  0  0  0  0  0  0  0  0  0  0  0
    4.0594   -2.8498    2.3325 H   0  0  0  0  0  0  0  0  0  0  0  0
    2.0166   -1.6375    1.5393 H   0  0  0  0  0  0  0  0  0  0  0  0
    3.5247   -0.8710    0.9779 H   0  0  0  0  0  0  0  0  0  0  0  0
    0.2555    3.1689    2.0837 H   0  0  0  0  0  0  0  0  0  0  0  0
    0.8813    0.3624    1.7156 H   0  0  0  0  0  0  0  0  0  0  0  0
   -0.0119    1.0908    3.0390 H   0  0  0  0  0  0  0  0  0  0  0  0
   -1.7637    2.4654    0.4238 H   0  0  0  0  0  0  0  0  0  0  0  0
   -4.5528   -0.7788   -0.1480 H   0  0  0  0  0  0  0  0  0  0  0  0
   -0.9434   -1.4075    2.1132 H   0  0  0  0  0  0  0  0  0  0  0  0
  1  2  1  0  0  0  0
  1  4  1  0  0  0  0
  1  5  2  0  0  0  0
  2  3  1  0  0  0  0
  2  6  2  0  0  0  0
  3  4  2  0  0  0  0
  3 20  1  0  0  0  0
  4  7  1  0  0  0  0
  7  8  1  0  0  0  0
  7 36  1  0  0  0  0
  8  9  1  0  0  0  0
  8 13  1  0  0  0  0
  8 37  1  6  0  0  0
  9 10  1  0  0  0  0
  9 14  1  0  0  0  0
  9 38  1  1  0  0  0
 10 11  1  0  0  0  0
 10 39  1  0  0  0  0
 10 40  1  0  0  0  0
 11 12  1  0  0  0  0
 11 41  1  0  0  0  0
 11 42  1  0  0  0  0
 12 13  1  0  0  0  0
 12 43  1  0  0  0  0
 12 44  1  0  0  0  0
 13 45  1  0  0  0  0
 13 46  1  0  0  0  0
 14 15  1  0  0  0  0
 14 19  1  0  0  0  0
 15 16  1  0  0  0  0
 15 47  1  0  0  0  0
 15 48  1  0  0  0  0
 16 17  1  0  0  0  0
 16 49  1  0  0  0  0
 16 50  1  0  0  0  0
 17 18  1  0  0  0  0
 17 51  1  0  0  0  0
 17 52  1  0  0  0  0
 18 19  1  0  0  0  0
 18 53  1  0  0  0  0
 18 54  1  0  0  0  0
 19 55  1  0  0  0  0
 19 56  1  0  0  0  0
 20 21  1  0  0  0  0
 20 57  1  0  0  0  0
 21 22  1  0  0  0  0
 21 58  1  0  0  0  0
 21 59  1  0  0  0  0
 22 23  2  0  0  0  0
 22 27  1  0  0  0  0
 23 24  1  0  0  0  0
 23 60  1  0  0  0  0
 24 25  2  0  0  0  0
 24 32  1  0  0  0  0
 25 26  1  0  0  0  0
 25 61  1  0  0  0  0
 26 27  2  0  0  0  0
 26 28  1  0  0  0  0
 27 62  1  0  0  0  0
 28 29  1  0  0  0  0
 28 30  1  0  0  0  0
 28 31  1  0  0  0  0
 32 33  1  0  0  0  0
 32 34  1  0  0  0  0
 32 35  1  0  0  0  0
M  END
$$$$
