Title Card Required
 OpenBabel03192317503D

 40 45  0  0  1  0  0  0  0  0999 V2000
   -1.2238   -1.5236    0.5229 O   0  0  0  0  0  0  0  0  0  0  0  0
   -0.6393   -0.3154    0.3768 C   0  0  0  0  0  0  0  0  0  0  0  0
   -1.1949    0.7083    0.8689 N   0  0  0  0  0  0  0  0  0  0  0  0
   -2.4546    0.2335    1.4421 C   0  0  2  0  0  0  0  0  0  0  0  0
   -2.3892   -1.3208    1.3336 C   0  0  1  0  0  0  0  0  0  0  0  0
    2.3892   -1.3207   -1.3336 C   0  0  2  0  0  0  0  0  0  0  0  0
    2.4546    0.2336   -1.4421 C   0  0  1  0  0  0  0  0  0  0  0  0
    1.1949    0.7083   -0.8688 N   0  0  0  0  0  0  0  0  0  0  0  0
    0.6392   -0.3154   -0.3769 C   0  0  0  0  0  0  0  0  0  0  0  0
    1.2238   -1.5236   -0.5230 O   0  0  0  0  0  0  0  0  0  0  0  0
   -3.6617   -1.7947    0.6191 C   0  0  0  0  0  0  0  0  0  0  0  0
   -4.2911   -0.5259    0.0925 C   0  0  0  0  0  0  0  0  0  0  0  0
   -3.6385    0.6086    0.5774 C   0  0  0  0  0  0  0  0  0  0  0  0
    3.6385    0.6086   -0.5774 C   0  0  0  0  0  0  0  0  0  0  0  0
    4.2910   -0.5259   -0.0925 C   0  0  0  0  0  0  0  0  0  0  0  0
    3.6617   -1.7947   -0.6190 C   0  0  0  0  0  0  0  0  0  0  0  0
    4.0532    1.8879   -0.2159 C   0  0  0  0  0  0  0  0  0  0  0  0
    5.1512    2.0215    0.6325 C   0  0  0  0  0  0  0  0  0  0  0  0
    5.8147    0.8889    1.1141 C   0  0  0  0  0  0  0  0  0  0  0  0
    5.3888   -0.3902    0.7564 C   0  0  0  0  0  0  0  0  0  0  0  0
   -5.3888   -0.3901   -0.7565 C   0  0  0  0  0  0  0  0  0  0  0  0
   -5.8146    0.8889   -1.1141 C   0  0  0  0  0  0  0  0  0  0  0  0
   -5.1511    2.0216   -0.6325 C   0  0  0  0  0  0  0  0  0  0  0  0
   -4.0532    1.8879    0.2159 C   0  0  0  0  0  0  0  0  0  0  0  0
   -2.5601    0.6074    2.4713 H   0  0  0  0  0  0  0  0  0  0  0  0
   -2.2191   -1.8340    2.2900 H   0  0  0  0  0  0  0  0  0  0  0  0
    2.2192   -1.8339   -2.2901 H   0  0  0  0  0  0  0  0  0  0  0  0
    2.5601    0.6075   -2.4712 H   0  0  0  0  0  0  0  0  0  0  0  0
   -3.4072   -2.5106   -0.1755 H   0  0  0  0  0  0  0  0  0  0  0  0
   -4.3348   -2.3084    1.3228 H   0  0  0  0  0  0  0  0  0  0  0  0
    3.4070   -2.5105    0.1756 H   0  0  0  0  0  0  0  0  0  0  0  0
    4.3347   -2.3084   -1.3227 H   0  0  0  0  0  0  0  0  0  0  0  0
    3.5145    2.7640   -0.5809 H   0  0  0  0  0  0  0  0  0  0  0  0
    5.4908    3.0147    0.9300 H   0  0  0  0  0  0  0  0  0  0  0  0
    6.6693    1.0066    1.7822 H   0  0  0  0  0  0  0  0  0  0  0  0
    5.9051   -1.2716    1.1420 H   0  0  0  0  0  0  0  0  0  0  0  0
   -5.9051   -1.2716   -1.1420 H   0  0  0  0  0  0  0  0  0  0  0  0
   -6.6693    1.0067   -1.7823 H   0  0  0  0  0  0  0  0  0  0  0  0
   -5.4907    3.0148   -0.9300 H   0  0  0  0  0  0  0  0  0  0  0  0
   -3.5144    2.7640    0.5810 H   0  0  0  0  0  0  0  0  0  0  0  0
  1  2  1  0  0  0  0
  1  5  1  0  0  0  0
  2  3  2  0  0  0  0
  2  9  1  0  0  0  0
  3  4  1  0  0  0  0
  4  5  1  0  0  0  0
  4 13  1  0  0  0  0
  4 25  1  1  0  0  0
  5 11  1  0  0  0  0
  5 26  1  1  0  0  0
  6  7  1  0  0  0  0
  6 10  1  0  0  0  0
  6 16  1  0  0  0  0
  6 27  1  6  0  0  0
  7  8  1  0  0  0  0
  7 14  1  0  0  0  0
  7 28  1  6  0  0  0
  8  9  2  0  0  0  0
  9 10  1  0  0  0  0
 11 12  1  0  0  0  0
 11 29  1  0  0  0  0
 11 30  1  0  0  0  0
 12 13  2  0  0  0  0
 12 21  1  0  0  0  0
 13 24  1  0  0  0  0
 14 15  2  0  0  0  0
 14 17  1  0  0  0  0
 15 16  1  0  0  0  0
 15 20  1  0  0  0  0
 16 31  1  0  0  0  0
 16 32  1  0  0  0  0
 17 18  2  0  0  0  0
 17 33  1  0  0  0  0
 18 19  1  0  0  0  0
 18 34  1  0  0  0  0
 19 20  2  0  0  0  0
 19 35  1  0  0  0  0
 20 36  1  0  0  0  0
 21 22  2  0  0  0  0
 21 37  1  0  0  0  0
 22 23  1  0  0  0  0
 22 38  1  0  0  0  0
 23 24  2  0  0  0  0
 23 39  1  0  0  0  0
 24 40  1  0  0  0  0
M  END
$$$$
