Title Card Required
 OpenBabel03192317513D

 70 75  0  0  0  0  0  0  0  0999 V2000
   -1.7580    1.8940    2.4762 C   0  0  0  0  0  0  0  0  0  0  0  0
   -0.6122    1.9166    1.6619 C   0  0  0  0  0  0  0  0  0  0  0  0
   -0.5960    1.1934    0.4568 C   0  0  0  0  0  0  0  0  0  0  0  0
   -1.7167    0.4536    0.0620 C   0  0  0  0  0  0  0  0  0  0  0  0
   -2.8654    0.4127    0.8744 C   0  0  0  0  0  0  0  0  0  0  0  0
   -2.8598    1.1460    2.0621 C   0  0  0  0  0  0  0  0  0  0  0  0
    0.6036    1.2134   -0.4314 C   0  0  0  0  0  0  0  0  0  0  0  0
    0.6236    1.9943   -1.6001 C   0  0  0  0  0  0  0  0  0  0  0  0
    1.7723    2.0115   -2.4104 C   0  0  0  0  0  0  0  0  0  0  0  0
    2.8723    1.2431   -2.0305 C   0  0  0  0  0  0  0  0  0  0  0  0
    2.8736    0.4517   -0.8804 C   0  0  0  0  0  0  0  0  0  0  0  0
    1.7225    0.4532   -0.0710 C   0  0  0  0  0  0  0  0  0  0  0  0
   -1.6486   -0.1888   -1.1309 O   0  0  0  0  0  0  0  0  0  0  0  0
    1.6499   -0.2493    1.0874 O   0  0  0  0  0  0  0  0  0  0  0  0
   -1.8243    2.6651    3.7791 C   0  0  0  0  0  0  0  0  0  0  0  0
   -0.4453    3.0400    4.3107 C   0  0  0  0  0  0  0  0  0  0  0  0
    0.3719    3.6888    3.1991 C   0  0  0  0  0  0  0  0  0  0  0  0
    0.6213    2.6943    2.0691 C   0  0  0  0  0  0  0  0  0  0  0  0
   -0.6087    2.7904   -1.9738 C   0  0  0  0  0  0  0  0  0  0  0  0
   -0.3511    3.8487   -3.0420 C   0  0  0  0  0  0  0  0  0  0  0  0
    0.4712    3.2648   -4.1850 C   0  0  0  0  0  0  0  0  0  0  0  0
    1.8458    2.8521   -3.6694 C   0  0  0  0  0  0  0  0  0  0  0  0
   -4.0543   -0.3885    0.4855 C   0  0  0  0  0  0  0  0  0  0  0  0
    4.0630   -0.3641   -0.5249 C   0  0  0  0  0  0  0  0  0  0  0  0
   -3.9258   -1.7303    0.0943 C   0  0  0  0  0  0  0  0  0  0  0  0
   -5.0444   -2.4836   -0.2577 C   0  0  0  0  0  0  0  0  0  0  0  0
   -6.3081   -1.9023   -0.2159 C   0  0  0  0  0  0  0  0  0  0  0  0
   -6.4570   -0.5704    0.1768 C   0  0  0  0  0  0  0  0  0  0  0  0
   -5.3386    0.1780    0.5215 C   0  0  0  0  0  0  0  0  0  0  0  0
    5.3442    0.2039   -0.5347 C   0  0  0  0  0  0  0  0  0  0  0  0
    6.4670   -0.5570   -0.2212 C   0  0  0  0  0  0  0  0  0  0  0  0
    6.3196   -1.9014    0.1135 C   0  0  0  0  0  0  0  0  0  0  0  0
    5.0542   -2.4886    0.1228 C   0  0  0  0  0  0  0  0  0  0  0  0
    3.9361   -1.7254   -0.1959 C   0  0  0  0  0  0  0  0  0  0  0  0
   -7.5365   -2.6960   -0.5693 C   0  0  0  0  0  0  0  0  0  0  0  0
   -7.2308   -3.8785   -1.1034 F   0  0  0  0  0  0  0  0  0  0  0  0
   -8.2949   -2.9269    0.5054 F   0  0  0  0  0  0  0  0  0  0  0  0
   -8.3017   -2.0421   -1.4473 F   0  0  0  0  0  0  0  0  0  0  0  0
    7.5110   -2.7339    0.5022 C   0  0  0  0  0  0  0  0  0  0  0  0
    8.6611   -2.1381    0.1854 F   0  0  0  0  0  0  0  0  0  0  0  0
    7.5348   -2.9670    1.8183 F   0  0  0  0  0  0  0  0  0  0  0  0
    7.4914   -3.9255   -0.0986 F   0  0  0  0  0  0  0  0  0  0  0  0
   -3.7460    1.1067    2.7020 H   0  0  0  0  0  0  0  0  0  0  0  0
    3.7608    1.2347   -2.6684 H   0  0  0  0  0  0  0  0  0  0  0  0
   -2.5168   -0.5423   -1.3619 H   0  0  0  0  0  0  0  0  0  0  0  0
    2.5188   -0.6073    1.3081 H   0  0  0  0  0  0  0  0  0  0  0  0
   -2.4075    3.5891    3.6185 H   0  0  0  0  0  0  0  0  0  0  0  0
   -2.3836    2.0756    4.5213 H   0  0  0  0  0  0  0  0  0  0  0  0
    0.0760    2.1347    4.6652 H   0  0  0  0  0  0  0  0  0  0  0  0
   -0.5440    3.7144    5.1737 H   0  0  0  0  0  0  0  0  0  0  0  0
    1.3325    4.0640    3.5810 H   0  0  0  0  0  0  0  0  0  0  0  0
   -0.1798    4.5630    2.8127 H   0  0  0  0  0  0  0  0  0  0  0  0
    1.3859    1.9611    2.3790 H   0  0  0  0  0  0  0  0  0  0  0  0
    1.0382    3.2037    1.1868 H   0  0  0  0  0  0  0  0  0  0  0  0
   -1.3681    2.0742   -2.3334 H   0  0  0  0  0  0  0  0  0  0  0  0
   -1.0358    3.2469   -1.0679 H   0  0  0  0  0  0  0  0  0  0  0  0
   -1.3088    4.2474   -3.4071 H   0  0  0  0  0  0  0  0  0  0  0  0
    0.1993    4.6973   -2.6007 H   0  0  0  0  0  0  0  0  0  0  0  0
   -0.0511    2.3849   -4.5975 H   0  0  0  0  0  0  0  0  0  0  0  0
    0.5788    3.9898   -5.0049 H   0  0  0  0  0  0  0  0  0  0  0  0
    2.4339    3.7621   -3.4555 H   0  0  0  0  0  0  0  0  0  0  0  0
    2.4043    2.3018   -4.4418 H   0  0  0  0  0  0  0  0  0  0  0  0
   -2.9372   -2.1945    0.0866 H   0  0  0  0  0  0  0  0  0  0  0  0
   -4.9363   -3.5262   -0.5574 H   0  0  0  0  0  0  0  0  0  0  0  0
   -7.4508   -0.1192    0.1992 H   0  0  0  0  0  0  0  0  0  0  0  0
   -5.4487    1.2243    0.8111 H   0  0  0  0  0  0  0  0  0  0  0  0
    5.4543    1.2613   -0.7812 H   0  0  0  0  0  0  0  0  0  0  0  0
    7.4603   -0.1076   -0.2316 H   0  0  0  0  0  0  0  0  0  0  0  0
    4.9481   -3.5480    0.3628 H   0  0  0  0  0  0  0  0  0  0  0  0
    2.9488   -2.1920   -0.2170 H   0  0  0  0  0  0  0  0  0  0  0  0
  1  2  2  0  0  0  0
  1  6  1  0  0  0  0
  1 15  1  0  0  0  0
  2  3  1  0  0  0  0
  2 18  1  0  0  0  0
  3  4  2  0  0  0  0
  3  7  1  0  0  0  0
  4  5  1  0  0  0  0
  4 13  1  0  0  0  0
  5  6  2  0  0  0  0
  5 23  1  0  0  0  0
  6 43  1  0  0  0  0
  7  8  2  0  0  0  0
  7 12  1  0  0  0  0
  8  9  1  0  0  0  0
  8 19  1  0  0  0  0
  9 10  2  0  0  0  0
  9 22  1  0  0  0  0
 10 11  1  0  0  0  0
 10 44  1  0  0  0  0
 11 12  2  0  0  0  0
 11 24  1  0  0  0  0
 12 14  1  0  0  0  0
 13 45  1  0  0  0  0
 14 46  1  0  0  0  0
 15 16  1  0  0  0  0
 15 47  1  0  0  0  0
 15 48  1  0  0  0  0
 16 17  1  0  0  0  0
 16 49  1  0  0  0  0
 16 50  1  0  0  0  0
 17 18  1  0  0  0  0
 17 51  1  0  0  0  0
 17 52  1  0  0  0  0
 18 53  1  0  0  0  0
 18 54  1  0  0  0  0
 19 20  1  0  0  0  0
 19 55  1  0  0  0  0
 19 56  1  0  0  0  0
 20 21  1  0  0  0  0
 20 57  1  0  0  0  0
 20 58  1  0  0  0  0
 21 22  1  0  0  0  0
 21 59  1  0  0  0  0
 21 60  1  0  0  0  0
 22 61  1  0  0  0  0
 22 62  1  0  0  0  0
 23 25  2  0  0  0  0
 23 29  1  0  0  0  0
 24 30  2  0  0  0  0
 24 34  1  0  0  0  0
 25 26  1  0  0  0  0
 25 63  1  0  0  0  0
 26 27  2  0  0  0  0
 26 64  1  0  0  0  0
 27 28  1  0  0  0  0
 27 35  1  0  0  0  0
 28 29  2  0  0  0  0
 28 65  1  0  0  0  0
 29 66  1  0  0  0  0
 30 31  1  0  0  0  0
 30 67  1  0  0  0  0
 31 32  2  0  0  0  0
 31 68  1  0  0  0  0
 32 33  1  0  0  0  0
 32 39  1  0  0  0  0
 33 34  2  0  0  0  0
 33 69  1  0  0  0  0
 34 70  1  0  0  0  0
 35 36  1  0  0  0  0
 35 37  1  0  0  0  0
 35 38  1  0  0  0  0
 39 40  1  0  0  0  0
 39 41  1  0  0  0  0
 39 42  1  0  0  0  0
M  END
$$$$
