Title Card Required
 OpenBabel03192317443D

 59 61  0  0  1  0  0  0  0  0999 V2000
   -2.2358    0.5334   -2.0326 N   0  0  0  0  0  0  0  0  0  0  0  0
   -1.1638   -0.3478   -1.5904 C   0  0  2  0  0  0  0  0  0  0  0  0
   -1.7820   -1.7596   -1.5910 C   0  0  0  0  0  0  0  0  0  0  0  0
   -3.2933   -1.5097   -1.6179 C   0  0  0  0  0  0  0  0  0  0  0  0
   -3.4005   -0.2355   -2.4528 C   0  0  0  0  0  0  0  0  0  0  0  0
   -0.6031    0.0600   -0.1938 C   0  0  0  0  0  0  0  0  0  0  0  0
   -0.0052    1.4738   -0.2037 C   0  0  0  0  0  0  0  0  0  0  0  0
    0.4325    2.0997   -1.3754 C   0  0  0  0  0  0  0  0  0  0  0  0
    1.0735    3.3393   -1.3333 C   0  0  0  0  0  0  0  0  0  0  0  0
    1.2861    3.9775   -0.1143 C   0  0  0  0  0  0  0  0  0  0  0  0
    0.8473    3.3691    1.0621 C   0  0  0  0  0  0  0  0  0  0  0  0
    0.2082    2.1328    1.0149 C   0  0  0  0  0  0  0  0  0  0  0  0
   -1.7114   -0.0587    0.8522 C   0  0  0  0  0  0  0  0  0  0  0  0
   -1.7367   -1.1483    1.7256 C   0  0  0  0  0  0  0  0  0  0  0  0
   -2.7869   -1.3107    2.6308 C   0  0  0  0  0  0  0  0  0  0  0  0
   -3.8205   -0.3793    2.6796 C   0  0  0  0  0  0  0  0  0  0  0  0
   -3.7914    0.7239    1.8241 C   0  0  0  0  0  0  0  0  0  0  0  0
   -2.7448    0.8862    0.9196 C   0  0  0  0  0  0  0  0  0  0  0  0
    0.4030   -0.8630    0.1523 O   0  0  0  0  0  0  0  0  0  0  0  0
    1.9140   -1.3702   -0.3668 Si  0  0  0  0  0  0  0  0  0  0  0  0
    1.8607   -3.2299   -0.1213 C   0  0  0  0  0  0  0  0  0  0  0  0
    2.2580   -0.9938   -2.1782 C   0  0  0  0  0  0  0  0  0  0  0  0
    3.2520   -0.5904    0.7379 C   0  0  0  0  0  0  0  0  0  0  0  0
    2.7243   -0.5080    2.1756 C   0  0  0  0  0  0  0  0  0  0  0  0
    4.5073   -1.4740    0.7037 C   0  0  0  0  0  0  0  0  0  0  0  0
    3.6159    0.8157    0.2421 C   0  0  0  0  0  0  0  0  0  0  0  0
   -1.9459    1.2500   -2.6877 H   0  0  0  0  0  0  0  0  0  0  0  0
   -0.3006   -0.3334   -2.2759 H   0  0  0  0  0  0  0  0  0  0  0  0
   -1.4745   -2.2927   -2.5038 H   0  0  0  0  0  0  0  0  0  0  0  0
   -1.4506   -2.3542   -0.7292 H   0  0  0  0  0  0  0  0  0  0  0  0
   -3.8596   -2.3461   -2.0488 H   0  0  0  0  0  0  0  0  0  0  0  0
   -3.6680   -1.3259   -0.6003 H   0  0  0  0  0  0  0  0  0  0  0  0
   -3.3832   -0.4890   -3.5318 H   0  0  0  0  0  0  0  0  0  0  0  0
   -4.3318    0.3181   -2.2555 H   0  0  0  0  0  0  0  0  0  0  0  0
    0.2861    1.6240   -2.3462 H   0  0  0  0  0  0  0  0  0  0  0  0
    1.4080    3.8056   -2.2615 H   0  0  0  0  0  0  0  0  0  0  0  0
    1.7885    4.9453   -0.0797 H   0  0  0  0  0  0  0  0  0  0  0  0
    1.0045    3.8599    2.0240 H   0  0  0  0  0  0  0  0  0  0  0  0
   -0.1390    1.6653    1.9385 H   0  0  0  0  0  0  0  0  0  0  0  0
   -0.9212   -1.8701    1.6886 H   0  0  0  0  0  0  0  0  0  0  0  0
   -2.7919   -2.1705    3.3030 H   0  0  0  0  0  0  0  0  0  0  0  0
   -4.6411   -0.5043    3.3880 H   0  0  0  0  0  0  0  0  0  0  0  0
   -4.5902    1.4665    1.8646 H   0  0  0  0  0  0  0  0  0  0  0  0
   -2.7261    1.7435    0.2469 H   0  0  0  0  0  0  0  0  0  0  0  0
    1.0212   -3.6555   -0.6920 H   0  0  0  0  0  0  0  0  0  0  0  0
    2.7866   -3.7173   -0.4604 H   0  0  0  0  0  0  0  0  0  0  0  0
    1.7085   -3.4824    0.9391 H   0  0  0  0  0  0  0  0  0  0  0  0
    2.1533    0.0765   -2.4068 H   0  0  0  0  0  0  0  0  0  0  0  0
    3.2930   -1.2873   -2.4163 H   0  0  0  0  0  0  0  0  0  0  0  0
    1.5897   -1.5659   -2.8393 H   0  0  0  0  0  0  0  0  0  0  0  0
    2.4421   -1.4995    2.5657 H   0  0  0  0  0  0  0  0  0  0  0  0
    3.4984   -0.0945    2.8448 H   0  0  0  0  0  0  0  0  0  0  0  0
    1.8357    0.1370    2.2361 H   0  0  0  0  0  0  0  0  0  0  0  0
    4.8932   -1.6072   -0.3207 H   0  0  0  0  0  0  0  0  0  0  0  0
    5.3130   -1.0090    1.2976 H   0  0  0  0  0  0  0  0  0  0  0  0
    4.3177   -2.4725    1.1264 H   0  0  0  0  0  0  0  0  0  0  0  0
    4.0514    0.7888   -0.7694 H   0  0  0  0  0  0  0  0  0  0  0  0
    2.7431    1.4858    0.2180 H   0  0  0  0  0  0  0  0  0  0  0  0
    4.3655    1.2706    0.9130 H   0  0  0  0  0  0  0  0  0  0  0  0
  1  2  1  0  0  0  0
  1  5  1  0  0  0  0
  1 27  1  0  0  0  0
  2  3  1  0  0  0  0
  2  6  1  0  0  0  0
  2 28  1  6  0  0  0
  3  4  1  0  0  0  0
  3 29  1  0  0  0  0
  3 30  1  0  0  0  0
  4  5  1  0  0  0  0
  4 31  1  0  0  0  0
  4 32  1  0  0  0  0
  5 33  1  0  0  0  0
  5 34  1  0  0  0  0
  6  7  1  0  0  0  0
  6 13  1  0  0  0  0
  6 19  1  0  0  0  0
  7  8  2  0  0  0  0
  7 12  1  0  0  0  0
  8  9  1  0  0  0  0
  8 35  1  0  0  0  0
  9 10  2  0  0  0  0
  9 36  1  0  0  0  0
 10 11  1  0  0  0  0
 10 37  1  0  0  0  0
 11 12  2  0  0  0  0
 11 38  1  0  0  0  0
 12 39  1  0  0  0  0
 13 14  2  0  0  0  0
 13 18  1  0  0  0  0
 14 15  1  0  0  0  0
 14 40  1  0  0  0  0
 15 16  2  0  0  0  0
 15 41  1  0  0  0  0
 16 17  1  0  0  0  0
 16 42  1  0  0  0  0
 17 18  2  0  0  0  0
 17 43  1  0  0  0  0
 18 44  1  0  0  0  0
 19 20  1  0  0  0  0
 20 21  1  0  0  0  0
 20 22  1  0  0  0  0
 20 23  1  0  0  0  0
 21 45  1  0  0  0  0
 21 46  1  0  0  0  0
 21 47  1  0  0  0  0
 22 48  1  0  0  0  0
 22 49  1  0  0  0  0
 22 50  1  0  0  0  0
 23 24  1  0  0  0  0
 23 25  1  0  0  0  0
 23 26  1  0  0  0  0
 24 51  1  0  0  0  0
 24 52  1  0  0  0  0
 24 53  1  0  0  0  0
 25 54  1  0  0  0  0
 25 55  1  0  0  0  0
 25 56  1  0  0  0  0
 26 57  1  0  0  0  0
 26 58  1  0  0  0  0
 26 59  1  0  0  0  0
M  END
$$$$
