Title Card Required
 OpenBabel03192317493D

 33 36  0  0  1  0  0  0  0  0999 V2000
    1.9216    1.9786    0.1363 S   0  0  0  0  0  0  0  0  0  0  0  0
    0.7462    0.6664    0.2347 C   0  0  2  0  0  3  0  0  0  0  0  0
    1.3923   -0.5597    0.2891 N   0  0  0  0  0  0  0  0  0  0  0  0
    2.7567   -0.5287    0.1111 C   0  0  0  0  0  0  0  0  0  0  0  0
    3.2388    0.7950    0.0272 C   0  0  0  0  0  0  0  0  0  0  0  0
   -0.5209    0.6641    0.2414 N   0  0  0  0  0  2  0  0  0  0  0  0
   -0.9204   -0.7492    0.3451 C   0  0  2  0  0  0  0  0  0  0  0  0
    0.3846   -1.5931    0.1538 C   0  0  0  0  0  0  0  0  0  0  0  0
    4.5932    1.0483   -0.1277 C   0  0  0  0  0  0  0  0  0  0  0  0
    5.4757   -0.0339   -0.2113 C   0  0  0  0  0  0  0  0  0  0  0  0
    4.9982   -1.3421   -0.1399 C   0  0  0  0  0  0  0  0  0  0  0  0
    3.6360   -1.6055    0.0230 C   0  0  0  0  0  0  0  0  0  0  0  0
   -2.0080   -1.1150   -0.6671 C   0  0  0  0  0  0  0  0  0  0  0  0
   -3.3470   -0.4827   -0.3747 C   0  0  0  0  0  0  0  0  0  0  0  0
   -3.5344    0.8991   -0.5115 C   0  0  0  0  0  0  0  0  0  0  0  0
   -4.7680    1.4769   -0.2218 C   0  0  0  0  0  0  0  0  0  0  0  0
   -5.8342    0.6865    0.2089 C   0  0  0  0  0  0  0  0  0  0  0  0
   -5.6581   -0.6880    0.3496 C   0  0  0  0  0  0  0  0  0  0  0  0
   -4.4217   -1.2650    0.0595 C   0  0  0  0  0  0  0  0  0  0  0  0
   -1.3233   -0.9138    1.3594 H   0  0  0  0  0  0  0  0  0  0  0  0
    0.4324   -2.0552   -0.8492 H   0  0  0  0  0  0  0  0  0  0  0  0
    0.4970   -2.3800    0.9123 H   0  0  0  0  0  0  0  0  0  0  0  0
    4.9610    2.0735   -0.1903 H   0  0  0  0  0  0  0  0  0  0  0  0
    6.5427    0.1513   -0.3365 H   0  0  0  0  0  0  0  0  0  0  0  0
    5.6968   -2.1768   -0.2104 H   0  0  0  0  0  0  0  0  0  0  0  0
    3.2612   -2.6279    0.0841 H   0  0  0  0  0  0  0  0  0  0  0  0
   -1.6499   -0.8159   -1.6659 H   0  0  0  0  0  0  0  0  0  0  0  0
   -2.1192   -2.2110   -0.6750 H   0  0  0  0  0  0  0  0  0  0  0  0
   -2.6942    1.5183   -0.8275 H   0  0  0  0  0  0  0  0  0  0  0  0
   -4.8987    2.5547   -0.3326 H   0  0  0  0  0  0  0  0  0  0  0  0
   -6.8001    1.1424    0.4321 H   0  0  0  0  0  0  0  0  0  0  0  0
   -6.4857   -1.3162    0.6833 H   0  0  0  0  0  0  0  0  0  0  0  0
   -4.2900   -2.3446    0.1678 H   0  0  0  0  0  0  0  0  0  0  0  0
  1  5  1  0  0  0  0
  2  1  1  6  0  0  0
  2  3  1  0  0  0  0
  2  6  1  0  0  0  0
  3  4  1  0  0  0  0
  3  8  1  0  0  0  0
  4  5  2  0  0  0  0
  4 12  1  0  0  0  0
  5  9  1  0  0  0  0
  6  7  1  0  0  0  0
  7  8  1  0  0  0  0
  7 13  1  0  0  0  0
  7 20  1  1  0  0  0
  8 21  1  0  0  0  0
  8 22  1  0  0  0  0
  9 10  2  0  0  0  0
  9 23  1  0  0  0  0
 10 11  1  0  0  0  0
 10 24  1  0  0  0  0
 11 12  2  0  0  0  0
 11 25  1  0  0  0  0
 12 26  1  0  0  0  0
 13 14  1  0  0  0  0
 13 27  1  0  0  0  0
 13 28  1  0  0  0  0
 14 15  2  0  0  0  0
 14 19  1  0  0  0  0
 15 16  1  0  0  0  0
 15 29  1  0  0  0  0
 16 17  2  0  0  0  0
 16 30  1  0  0  0  0
 17 18  1  0  0  0  0
 17 31  1  0  0  0  0
 18 19  2  0  0  0  0
 18 32  1  0  0  0  0
 19 33  1  0  0  0  0
M  END
$$$$
