Title Card Required
 OpenBabel03192317443D

 55 57  0  0  1  0  0  0  0  0999 V2000
    0.6021    0.8740    0.7963 N   0  0  0  0  0  0  0  0  0  0  0  0
   -0.5720    0.1493    0.7969 C   0  0  0  0  0  0  0  0  0  0  0  0
   -0.7050   -1.4321    0.2817 S   0  0  0  0  0  0  0  0  0  0  0  0
   -1.6240    0.8692    1.2447 N   0  0  0  0  0  0  0  0  0  0  0  0
   -2.9867    0.3582    1.3321 C   0  0  2  0  0  0  0  0  0  0  0  0
   -3.6912    0.4408   -0.0469 C   0  0  2  0  0  0  0  0  0  0  0  0
   -3.9567    1.9146   -0.3769 C   0  0  0  0  0  0  0  0  0  0  0  0
   -4.7697    2.6353    0.6987 C   0  0  0  0  0  0  0  0  0  0  0  0
   -4.0572    2.5579    2.0471 C   0  0  0  0  0  0  0  0  0  0  0  0
   -3.7683    1.1024    2.4141 C   0  0  0  0  0  0  0  0  0  0  0  0
   -4.9018   -0.3814   -0.0023 N   0  0  0  0  0  0  0  0  0  0  0  0
   -4.6163   -1.8200   -0.0309 C   0  0  0  0  0  0  0  0  0  0  0  0
   -4.1875   -2.3353   -1.4098 C   0  0  0  0  0  0  0  0  0  0  0  0
   -5.2236   -1.9743   -2.4738 C   0  0  0  0  0  0  0  0  0  0  0  0
   -5.5456   -0.4803   -2.4190 C   0  0  0  0  0  0  0  0  0  0  0  0
   -5.9330   -0.0828   -0.9915 C   0  0  0  0  0  0  0  0  0  0  0  0
    1.8995    0.4739    0.4448 C   0  0  0  0  0  0  0  0  0  0  0  0
    2.7416    1.4416   -0.1236 C   0  0  0  0  0  0  0  0  0  0  0  0
    4.0532    1.1280   -0.4498 C   0  0  0  0  0  0  0  0  0  0  0  0
    4.5576   -0.1548   -0.2372 C   0  0  0  0  0  0  0  0  0  0  0  0
    3.7181   -1.1053    0.3287 C   0  0  0  0  0  0  0  0  0  0  0  0
    2.4018   -0.8081    0.6830 C   0  0  0  0  0  0  0  0  0  0  0  0
    4.2133   -2.5060    0.5877 C   0  0  0  0  0  0  0  0  0  0  0  0
    5.5020   -2.6420    0.2742 F   0  0  0  0  0  0  0  0  0  0  0  0
    4.0730   -2.8373    1.8725 F   0  0  0  0  0  0  0  0  0  0  0  0
    3.5285   -3.4005   -0.1235 F   0  0  0  0  0  0  0  0  0  0  0  0
    4.9610    2.1669   -1.0549 C   0  0  0  0  0  0  0  0  0  0  0  0
    4.3494    3.3453   -1.1900 F   0  0  0  0  0  0  0  0  0  0  0  0
    6.0443    2.3600   -0.3018 F   0  0  0  0  0  0  0  0  0  0  0  0
    5.3874    1.7937   -2.2621 F   0  0  0  0  0  0  0  0  0  0  0  0
    0.4977    1.8778    0.8954 H   0  0  0  0  0  0  0  0  0  0  0  0
   -1.4560    1.7969    1.6193 H   0  0  0  0  0  0  0  0  0  0  0  0
   -2.8917   -0.6944    1.6223 H   0  0  0  0  0  0  0  0  0  0  0  0
   -2.9658    0.0574   -0.7910 H   0  0  0  0  0  0  0  0  0  0  0  0
   -2.9715    2.4030   -0.4655 H   0  0  0  0  0  0  0  0  0  0  0  0
   -4.4245    2.0127   -1.3665 H   0  0  0  0  0  0  0  0  0  0  0  0
   -4.9373    3.6837    0.4095 H   0  0  0  0  0  0  0  0  0  0  0  0
   -5.7614    2.1646    0.7964 H   0  0  0  0  0  0  0  0  0  0  0  0
   -3.1194    3.1436    1.9974 H   0  0  0  0  0  0  0  0  0  0  0  0
   -4.6598    3.0303    2.8367 H   0  0  0  0  0  0  0  0  0  0  0  0
   -4.7239    0.5699    2.5251 H   0  0  0  0  0  0  0  0  0  0  0  0
   -3.2331    1.0270    3.3735 H   0  0  0  0  0  0  0  0  0  0  0  0
   -5.5355   -2.3441    0.2837 H   0  0  0  0  0  0  0  0  0  0  0  0
   -3.8404   -2.0658    0.7057 H   0  0  0  0  0  0  0  0  0  0  0  0
   -4.0393   -3.4248   -1.3604 H   0  0  0  0  0  0  0  0  0  0  0  0
   -3.2069   -1.9036   -1.6702 H   0  0  0  0  0  0  0  0  0  0  0  0
   -4.8756   -2.2664   -3.4758 H   0  0  0  0  0  0  0  0  0  0  0  0
   -6.1514   -2.5425   -2.2827 H   0  0  0  0  0  0  0  0  0  0  0  0
   -4.6621    0.1019   -2.7349 H   0  0  0  0  0  0  0  0  0  0  0  0
   -6.3607   -0.2279   -3.1148 H   0  0  0  0  0  0  0  0  0  0  0  0
   -6.2163    0.9764   -0.9382 H   0  0  0  0  0  0  0  0  0  0  0  0
   -6.8315   -0.6538   -0.6987 H   0  0  0  0  0  0  0  0  0  0  0  0
    2.3659    2.4480   -0.3160 H   0  0  0  0  0  0  0  0  0  0  0  0
    5.5855   -0.4044   -0.5015 H   0  0  0  0  0  0  0  0  0  0  0  0
    1.7700   -1.5684    1.1369 H   0  0  0  0  0  0  0  0  0  0  0  0
  1  2  1  0  0  0  0
  1 17  1  0  0  0  0
  1 31  1  0  0  0  0
  2  3  2  0  0  0  0
  2  4  1  0  0  0  0
  4  5  1  0  0  0  0
  4 32  1  0  0  0  0
  5  6  1  0  0  0  0
  5 10  1  0  0  0  0
  5 33  1  1  0  0  0
  6  7  1  0  0  0  0
  6 11  1  0  0  0  0
  6 34  1  6  0  0  0
  7  8  1  0  0  0  0
  7 35  1  0  0  0  0
  7 36  1  0  0  0  0
  8  9  1  0  0  0  0
  8 37  1  0  0  0  0
  8 38  1  0  0  0  0
  9 10  1  0  0  0  0
  9 39  1  0  0  0  0
  9 40  1  0  0  0  0
 10 41  1  0  0  0  0
 10 42  1  0  0  0  0
 11 12  1  0  0  0  0
 11 16  1  0  0  0  0
 12 13  1  0  0  0  0
 12 43  1  0  0  0  0
 12 44  1  0  0  0  0
 13 14  1  0  0  0  0
 13 45  1  0  0  0  0
 13 46  1  0  0  0  0
 14 15  1  0  0  0  0
 14 47  1  0  0  0  0
 14 48  1  0  0  0  0
 15 16  1  0  0  0  0
 15 49  1  0  0  0  0
 15 50  1  0  0  0  0
 16 51  1  0  0  0  0
 16 52  1  0  0  0  0
 17 18  2  0  0  0  0
 17 22  1  0  0  0  0
 18 19  1  0  0  0  0
 18 53  1  0  0  0  0
 19 20  2  0  0  0  0
 19 27  1  0  0  0  0
 20 21  1  0  0  0  0
 20 54  1  0  0  0  0
 21 22  2  0  0  0  0
 21 23  1  0  0  0  0
 22 55  1  0  0  0  0
 23 24  1  0  0  0  0
 23 25  1  0  0  0  0
 23 26  1  0  0  0  0
 27 28  1  0  0  0  0
 27 29  1  0  0  0  0
 27 30  1  0  0  0  0
M  END
$$$$
