Title Card Required
 OpenBabel03192317513D

 46 48  0  0  0  0  0  0  0  0999 V2000
   -1.4223   -1.1473    0.5137 P   0  0  1  0  0  0  0  0  0  0  0  0
   -3.1669   -1.1122   -0.1871 C   0  0  0  0  0  0  0  0  0  0  0  0
   -3.3547    0.0710   -0.9538 O   0  0  0  0  0  0  0  0  0  0  0  0
   -2.1766    0.5933   -1.3689 C   0  0  0  0  0  0  0  0  0  0  0  0
   -1.0121    0.0906   -0.7760 C   0  0  0  0  0  0  0  0  0  0  0  0
    0.2411    0.5772   -1.1671 C   0  0  0  0  0  0  0  0  0  0  0  0
    1.4825    0.0217   -0.5599 C   0  0  0  0  0  0  0  0  0  0  0  0
    1.7834   -1.3464   -0.6850 C   0  0  0  0  0  0  0  0  0  0  0  0
    0.9394   -2.0688   -1.4482 O   0  0  0  0  0  0  0  0  0  0  0  0
    1.0525   -3.4669   -1.4428 C   0  0  0  0  0  0  0  0  0  0  0  0
    2.9045   -1.8948   -0.0477 C   0  0  0  0  0  0  0  0  0  0  0  0
    3.7376   -1.0618    0.6913 C   0  0  0  0  0  0  0  0  0  0  0  0
    3.4817    0.3007    0.8128 C   0  0  0  0  0  0  0  0  0  0  0  0
    2.3530    0.8381    0.1816 C   0  0  0  0  0  0  0  0  0  0  0  0
    2.0021    2.1414    0.2745 O   0  0  0  0  0  0  0  0  0  0  0  0
    2.7691    2.9920    1.0846 C   0  0  0  0  0  0  0  0  0  0  0  0
    0.2950    1.5937   -2.1286 C   0  0  0  0  0  0  0  0  0  0  0  0
   -0.8767    2.0967   -2.6943 C   0  0  0  0  0  0  0  0  0  0  0  0
   -2.1279    1.6024   -2.3279 C   0  0  0  0  0  0  0  0  0  0  0  0
   -1.6154   -0.0324    2.0414 C   0  0  0  0  0  0  0  0  0  0  0  0
   -2.1871   -0.9250    3.1476 C   0  0  0  0  0  0  0  0  0  0  0  0
   -0.2079    0.4358    2.4263 C   0  0  0  0  0  0  0  0  0  0  0  0
   -2.5150    1.1842    1.8274 C   0  0  0  0  0  0  0  0  0  0  0  0
   -3.9344   -1.1490    0.5988 H   0  0  0  0  0  0  0  0  0  0  0  0
   -3.3019   -1.9872   -0.8450 H   0  0  0  0  0  0  0  0  0  0  0  0
    2.0035   -3.7996   -1.8908 H   0  0  0  0  0  0  0  0  0  0  0  0
    0.9705   -3.8694   -0.4197 H   0  0  0  0  0  0  0  0  0  0  0  0
    0.2223   -3.8484   -2.0476 H   0  0  0  0  0  0  0  0  0  0  0  0
    3.1335   -2.9548   -0.1338 H   0  0  0  0  0  0  0  0  0  0  0  0
    4.6137   -1.4862    1.1843 H   0  0  0  0  0  0  0  0  0  0  0  0
    4.1499    0.9274    1.3996 H   0  0  0  0  0  0  0  0  0  0  0  0
    2.7779    2.6483    2.1325 H   0  0  0  0  0  0  0  0  0  0  0  0
    3.8075    3.0687    0.7225 H   0  0  0  0  0  0  0  0  0  0  0  0
    2.2982    3.9798    1.0321 H   0  0  0  0  0  0  0  0  0  0  0  0
    1.2659    1.9865   -2.4316 H   0  0  0  0  0  0  0  0  0  0  0  0
   -0.8129    2.8854   -3.4459 H   0  0  0  0  0  0  0  0  0  0  0  0
   -3.0521    1.9773   -2.7673 H   0  0  0  0  0  0  0  0  0  0  0  0
   -1.5339   -1.7886    3.3437 H   0  0  0  0  0  0  0  0  0  0  0  0
   -2.2833   -0.3484    4.0819 H   0  0  0  0  0  0  0  0  0  0  0  0
   -3.1887   -1.3048    2.8897 H   0  0  0  0  0  0  0  0  0  0  0  0
    0.1829    1.1536    1.6891 H   0  0  0  0  0  0  0  0  0  0  0  0
   -0.2415    0.9404    3.4065 H   0  0  0  0  0  0  0  0  0  0  0  0
    0.5007   -0.4055    2.4968 H   0  0  0  0  0  0  0  0  0  0  0  0
   -2.1302    1.8310    1.0249 H   0  0  0  0  0  0  0  0  0  0  0  0
   -3.5470    0.9012    1.5731 H   0  0  0  0  0  0  0  0  0  0  0  0
   -2.5495    1.7822    2.7538 H   0  0  0  0  0  0  0  0  0  0  0  0
  1  2  1  0  0  0  0
  1  5  1  0  0  0  0
  1 20  1  1  0  0  0
  2  3  1  0  0  0  0
  2 24  1  0  0  0  0
  2 25  1  0  0  0  0
  3  4  1  0  0  0  0
  4  5  2  0  0  0  0
  4 19  1  0  0  0  0
  5  6  1  0  0  0  0
  6  7  1  0  0  0  0
  6 17  2  0  0  0  0
  7  8  2  0  0  0  0
  7 14  1  0  0  0  0
  8  9  1  0  0  0  0
  8 11  1  0  0  0  0
  9 10  1  0  0  0  0
 10 26  1  0  0  0  0
 10 27  1  0  0  0  0
 10 28  1  0  0  0  0
 11 12  2  0  0  0  0
 11 29  1  0  0  0  0
 12 13  1  0  0  0  0
 12 30  1  0  0  0  0
 13 14  2  0  0  0  0
 13 31  1  0  0  0  0
 14 15  1  0  0  0  0
 15 16  1  0  0  0  0
 16 32  1  0  0  0  0
 16 33  1  0  0  0  0
 16 34  1  0  0  0  0
 17 18  1  0  0  0  0
 17 35  1  0  0  0  0
 18 19  2  0  0  0  0
 18 36  1  0  0  0  0
 19 37  1  0  0  0  0
 20 21  1  0  0  0  0
 20 22  1  0  0  0  0
 20 23  1  0  0  0  0
 21 38  1  0  0  0  0
 21 39  1  0  0  0  0
 21 40  1  0  0  0  0
 22 41  1  0  0  0  0
 22 42  1  0  0  0  0
 22 43  1  0  0  0  0
 23 44  1  0  0  0  0
 23 45  1  0  0  0  0
 23 46  1  0  0  0  0
M  END
$$$$
