Title Card Required
 OpenBabel03192317443D

 67 72  0  0  1  0  0  0  0  0999 V2000
   -0.9693   -1.1536   -1.4913 O   0  0  0  0  0  0  0  0  0  0  0  0
   -0.5868   -0.2788   -0.5371 C   0  0  0  0  0  0  0  0  0  0  0  0
   -0.8988    0.9406   -0.6846 N   0  0  0  0  0  0  0  0  0  0  0  0
   -1.6490    1.0408   -1.9454 C   0  0  1  0  0  0  0  0  0  0  0  0
   -1.4673   -0.3637   -2.5739 C   0  0  0  0  0  0  0  0  0  0  0  0
    0.2465   -0.8185    0.6076 C   0  0  0  0  0  0  0  0  0  0  0  0
    3.4186    0.0736   -0.9043 C   0  0  0  0  0  0  0  0  0  0  0  0
    3.6410    0.5904    0.5407 C   0  0  2  0  0  0  0  0  0  0  0  0
    2.4627    0.0874    1.2598 N   0  0  0  0  0  0  0  0  0  0  0  0
    1.6424   -0.2892    0.3724 C   0  0  0  0  0  0  0  0  0  0  0  0
    2.0252   -0.2383   -0.9225 O   0  0  0  0  0  0  0  0  0  0  0  0
    3.7080    2.1036    0.6196 C   0  0  0  0  0  0  0  0  0  0  0  0
   -3.0917    1.4322   -1.6960 C   0  0  0  0  0  0  0  0  0  0  0  0
    2.5728    2.8728    0.3334 C   0  0  0  0  0  0  0  0  0  0  0  0
    2.6461    4.2634    0.3518 C   0  0  0  0  0  0  0  0  0  0  0  0
    3.8489    4.9019    0.6589 C   0  0  0  0  0  0  0  0  0  0  0  0
    4.9797    4.1418    0.9479 C   0  0  0  0  0  0  0  0  0  0  0  0
    4.9064    2.7485    0.9277 C   0  0  0  0  0  0  0  0  0  0  0  0
   -3.5391    2.7223   -1.9855 C   0  0  0  0  0  0  0  0  0  0  0  0
   -4.8634    3.0873   -1.7425 C   0  0  0  0  0  0  0  0  0  0  0  0
   -5.7549    2.1594   -1.2081 C   0  0  0  0  0  0  0  0  0  0  0  0
   -5.3156    0.8678   -0.9134 C   0  0  0  0  0  0  0  0  0  0  0  0
   -3.9915    0.5078   -1.1532 C   0  0  0  0  0  0  0  0  0  0  0  0
   -0.2709   -0.2443    1.9479 C   0  0  0  0  0  0  0  0  0  0  0  0
   -1.6627   -0.6917    2.3217 C   0  0  0  0  0  0  0  0  0  0  0  0
   -1.8753   -1.8569    3.0700 C   0  0  0  0  0  0  0  0  0  0  0  0
   -3.1636   -2.2679    3.4071 C   0  0  0  0  0  0  0  0  0  0  0  0
   -4.2652   -1.5107    3.0089 C   0  0  0  0  0  0  0  0  0  0  0  0
   -4.0671   -0.3414    2.2770 C   0  0  0  0  0  0  0  0  0  0  0  0
   -2.7770    0.0638    1.9354 C   0  0  0  0  0  0  0  0  0  0  0  0
    0.2843   -2.3760    0.6403 C   0  0  0  0  0  0  0  0  0  0  0  0
    1.2870   -3.0394   -0.2775 C   0  0  0  0  0  0  0  0  0  0  0  0
    2.6103   -3.2009    0.1533 C   0  0  0  0  0  0  0  0  0  0  0  0
    3.5674   -3.7891   -0.6723 C   0  0  0  0  0  0  0  0  0  0  0  0
    3.2124   -4.2322   -1.9458 C   0  0  0  0  0  0  0  0  0  0  0  0
    1.8941   -4.0920   -2.3777 C   0  0  0  0  0  0  0  0  0  0  0  0
    0.9398   -3.5019   -1.5508 C   0  0  0  0  0  0  0  0  0  0  0  0
   -1.1831    1.8142   -2.5720 H   0  0  0  0  0  0  0  0  0  0  0  0
   -2.3987   -0.8080   -2.9457 H   0  0  0  0  0  0  0  0  0  0  0  0
   -0.7115   -0.3660   -3.3726 H   0  0  0  0  0  0  0  0  0  0  0  0
    3.6268    0.8241   -1.6765 H   0  0  0  0  0  0  0  0  0  0  0  0
    3.9789   -0.8515   -1.1108 H   0  0  0  0  0  0  0  0  0  0  0  0
    4.5570    0.1689    0.9773 H   0  0  0  0  0  0  0  0  0  0  0  0
    1.6227    2.3829    0.0987 H   0  0  0  0  0  0  0  0  0  0  0  0
    1.7555    4.8532    0.1287 H   0  0  0  0  0  0  0  0  0  0  0  0
    3.9017    5.9916    0.6763 H   0  0  0  0  0  0  0  0  0  0  0  0
    5.9222    4.6337    1.1939 H   0  0  0  0  0  0  0  0  0  0  0  0
    5.7932    2.1538    1.1598 H   0  0  0  0  0  0  0  0  0  0  0  0
   -2.8407    3.4494   -2.4063 H   0  0  0  0  0  0  0  0  0  0  0  0
   -5.1996    4.0990   -1.9751 H   0  0  0  0  0  0  0  0  0  0  0  0
   -6.7927    2.4399   -1.0220 H   0  0  0  0  0  0  0  0  0  0  0  0
   -6.0079    0.1355   -0.4939 H   0  0  0  0  0  0  0  0  0  0  0  0
   -3.6507   -0.5009   -0.9020 H   0  0  0  0  0  0  0  0  0  0  0  0
    0.4538   -0.5351    2.7205 H   0  0  0  0  0  0  0  0  0  0  0  0
   -0.2373    0.8506    1.8699 H   0  0  0  0  0  0  0  0  0  0  0  0
   -1.0173   -2.4435    3.4065 H   0  0  0  0  0  0  0  0  0  0  0  0
   -3.3071   -3.1782    3.9916 H   0  0  0  0  0  0  0  0  0  0  0  0
   -5.2741   -1.8261    3.2802 H   0  0  0  0  0  0  0  0  0  0  0  0
   -4.9192    0.2691    1.9716 H   0  0  0  0  0  0  0  0  0  0  0  0
   -2.6234    0.9805    1.3616 H   0  0  0  0  0  0  0  0  0  0  0  0
    0.5405   -2.6524    1.6730 H   0  0  0  0  0  0  0  0  0  0  0  0
   -0.7301   -2.7499    0.4453 H   0  0  0  0  0  0  0  0  0  0  0  0
    2.8920   -2.8552    1.1512 H   0  0  0  0  0  0  0  0  0  0  0  0
    4.5920   -3.9088   -0.3153 H   0  0  0  0  0  0  0  0  0  0  0  0
    3.9572   -4.6954   -2.5950 H   0  0  0  0  0  0  0  0  0  0  0  0
    1.6044   -4.4471   -3.3682 H   0  0  0  0  0  0  0  0  0  0  0  0
   -0.0881   -3.3854   -1.8939 H   0  0  0  0  0  0  0  0  0  0  0  0
  1  2  1  0  0  0  0
  1  5  1  0  0  0  0
  2  3  2  0  0  0  0
  2  6  1  0  0  0  0
  3  4  1  0  0  0  0
  4  5  1  0  0  0  0
  4 13  1  0  0  0  0
  4 38  1  6  0  0  0
  5 39  1  0  0  0  0
  5 40  1  0  0  0  0
  6 10  1  0  0  0  0
  6 24  1  0  0  0  0
  6 31  1  0  0  0  0
  7  8  1  0  0  0  0
  7 11  1  0  0  0  0
  7 41  1  0  0  0  0
  7 42  1  0  0  0  0
  8  9  1  0  0  0  0
  8 12  1  0  0  0  0
  8 43  1  1  0  0  0
  9 10  2  0  0  0  0
 10 11  1  0  0  0  0
 12 14  2  0  0  0  0
 12 18  1  0  0  0  0
 13 19  2  0  0  0  0
 13 23  1  0  0  0  0
 14 15  1  0  0  0  0
 14 44  1  0  0  0  0
 15 16  2  0  0  0  0
 15 45  1  0  0  0  0
 16 17  1  0  0  0  0
 16 46  1  0  0  0  0
 17 18  2  0  0  0  0
 17 47  1  0  0  0  0
 18 48  1  0  0  0  0
 19 20  1  0  0  0  0
 19 49  1  0  0  0  0
 20 21  2  0  0  0  0
 20 50  1  0  0  0  0
 21 22  1  0  0  0  0
 21 51  1  0  0  0  0
 22 23  2  0  0  0  0
 22 52  1  0  0  0  0
 23 53  1  0  0  0  0
 24 25  1  0  0  0  0
 24 54  1  0  0  0  0
 24 55  1  0  0  0  0
 25 26  2  0  0  0  0
 25 30  1  0  0  0  0
 26 27  1  0  0  0  0
 26 56  1  0  0  0  0
 27 28  2  0  0  0  0
 27 57  1  0  0  0  0
 28 29  1  0  0  0  0
 28 58  1  0  0  0  0
 29 30  2  0  0  0  0
 29 59  1  0  0  0  0
 30 60  1  0  0  0  0
 31 32  1  0  0  0  0
 31 61  1  0  0  0  0
 31 62  1  0  0  0  0
 32 33  2  0  0  0  0
 32 37  1  0  0  0  0
 33 34  1  0  0  0  0
 33 63  1  0  0  0  0
 34 35  2  0  0  0  0
 34 64  1  0  0  0  0
 35 36  1  0  0  0  0
 35 65  1  0  0  0  0
 36 37  2  0  0  0  0
 36 66  1  0  0  0  0
 37 67  1  0  0  0  0
M  END
$$$$
