Title Card Required
 OpenBabel03192317463D

 73 78  0  0  1  0  0  0  0  0999 V2000
    0.5922   -0.0781    0.0239 O   0  0  0  0  0  0  0  0  0  0  0  0
    0.8811    1.1639   -0.4531 C   0  0  0  0  0  0  0  0  0  0  0  0
    1.8678    1.2771   -1.2534 N   0  0  0  0  0  0  0  0  0  0  0  0
    2.3741   -0.0690   -1.5039 C   0  0  2  0  0  0  0  0  0  0  0  0
    1.6401   -0.9501   -0.4130 C   0  0  1  0  0  0  0  0  0  0  0  0
   -0.0046    2.2726    0.0635 C   0  0  0  0  0  0  0  0  0  0  0  0
   -3.5398    1.3734    0.3650 C   0  0  2  0  0  0  0  0  0  0  0  0
   -3.2655    1.0983   -1.1655 C   0  0  1  0  0  0  0  0  0  0  0  0
   -1.8310    1.3225   -1.2994 N   0  0  0  0  0  0  0  0  0  0  0  0
   -1.4292    1.8380   -0.2134 C   0  0  0  0  0  0  0  0  0  0  0  0
   -2.3327    2.0351    0.7720 O   0  0  0  0  0  0  0  0  0  0  0  0
   -3.7103   -0.2608   -1.6521 C   0  0  0  0  0  0  0  0  0  0  0  0
    0.2250    2.4385    1.5819 C   0  0  0  0  0  0  0  0  0  0  0  0
    0.2756    3.5619   -0.7331 C   0  0  0  0  0  0  0  0  0  0  0  0
   -0.5470    4.7539   -0.2613 C   0  0  0  0  0  0  0  0  0  0  0  0
    1.6193    2.9421    1.9354 C   0  0  0  0  0  0  0  0  0  0  0  0
    3.8791   -0.1645   -1.4896 C   0  0  0  0  0  0  0  0  0  0  0  0
   -3.7575    0.1451    1.2109 C   0  0  0  0  0  0  0  0  0  0  0  0
    2.5045   -1.3730    0.7512 C   0  0  0  0  0  0  0  0  0  0  0  0
   -2.6806   -0.6822    1.5494 C   0  0  0  0  0  0  0  0  0  0  0  0
   -2.8978   -1.8454    2.2833 C   0  0  0  0  0  0  0  0  0  0  0  0
   -4.1884   -2.1943    2.6840 C   0  0  0  0  0  0  0  0  0  0  0  0
   -5.2623   -1.3716    2.3513 C   0  0  0  0  0  0  0  0  0  0  0  0
   -5.0444   -0.2044    1.6205 C   0  0  0  0  0  0  0  0  0  0  0  0
   -5.0628   -0.4946   -1.9165 C   0  0  0  0  0  0  0  0  0  0  0  0
   -5.4992   -1.7575   -2.3103 C   0  0  0  0  0  0  0  0  0  0  0  0
   -4.5820   -2.7987   -2.4511 C   0  0  0  0  0  0  0  0  0  0  0  0
   -3.2309   -2.5684   -2.1967 C   0  0  0  0  0  0  0  0  0  0  0  0
   -2.7955   -1.3048   -1.7991 C   0  0  0  0  0  0  0  0  0  0  0  0
    4.6306    0.6119   -0.6036 C   0  0  0  0  0  0  0  0  0  0  0  0
    6.0101    0.4465   -0.5175 C   0  0  0  0  0  0  0  0  0  0  0  0
    6.6555   -0.4927   -1.3227 C   0  0  0  0  0  0  0  0  0  0  0  0
    5.9151   -1.2559   -2.2235 C   0  0  0  0  0  0  0  0  0  0  0  0
    4.5329   -1.0880   -2.3070 C   0  0  0  0  0  0  0  0  0  0  0  0
    3.3874   -2.4471    0.5956 C   0  0  0  0  0  0  0  0  0  0  0  0
    4.2664   -2.7930    1.6171 C   0  0  0  0  0  0  0  0  0  0  0  0
    4.2645   -2.0758    2.8149 C   0  0  0  0  0  0  0  0  0  0  0  0
    3.3702   -1.0223    2.9849 C   0  0  0  0  0  0  0  0  0  0  0  0
    2.4923   -0.6731    1.9580 C   0  0  0  0  0  0  0  0  0  0  0  0
    2.0178   -0.3768   -2.5007 H   0  0  0  0  0  0  0  0  0  0  0  0
    1.1783   -1.8324   -0.8768 H   0  0  0  0  0  0  0  0  0  0  0  0
   -4.3734    2.0750    0.4970 H   0  0  0  0  0  0  0  0  0  0  0  0
   -3.7905    1.8619   -1.7647 H   0  0  0  0  0  0  0  0  0  0  0  0
   -0.5387    3.1253    1.9707 H   0  0  0  0  0  0  0  0  0  0  0  0
    0.0224    1.4707    2.0668 H   0  0  0  0  0  0  0  0  0  0  0  0
    1.3523    3.7744   -0.6774 H   0  0  0  0  0  0  0  0  0  0  0  0
    0.0658    3.3403   -1.7891 H   0  0  0  0  0  0  0  0  0  0  0  0
   -0.2840    5.0541    0.7637 H   0  0  0  0  0  0  0  0  0  0  0  0
   -0.3749    5.6202   -0.9141 H   0  0  0  0  0  0  0  0  0  0  0  0
   -1.6255    4.5328   -0.2751 H   0  0  0  0  0  0  0  0  0  0  0  0
    1.7676    3.9801    1.6050 H   0  0  0  0  0  0  0  0  0  0  0  0
    1.7743    2.9137    3.0228 H   0  0  0  0  0  0  0  0  0  0  0  0
    2.4060    2.3312    1.4669 H   0  0  0  0  0  0  0  0  0  0  0  0
   -1.6673   -0.4221    1.2304 H   0  0  0  0  0  0  0  0  0  0  0  0
   -2.0526   -2.4849    2.5429 H   0  0  0  0  0  0  0  0  0  0  0  0
   -4.3558   -3.1072    3.2577 H   0  0  0  0  0  0  0  0  0  0  0  0
   -6.2732   -1.6354    2.6661 H   0  0  0  0  0  0  0  0  0  0  0  0
   -5.8873    0.4422    1.3636 H   0  0  0  0  0  0  0  0  0  0  0  0
   -5.7836    0.3211   -1.8116 H   0  0  0  0  0  0  0  0  0  0  0  0
   -6.5577   -1.9290   -2.5128 H   0  0  0  0  0  0  0  0  0  0  0  0
   -4.9209   -3.7880   -2.7625 H   0  0  0  0  0  0  0  0  0  0  0  0
   -2.5090   -3.3791   -2.3090 H   0  0  0  0  0  0  0  0  0  0  0  0
   -1.7411   -1.1097   -1.5938 H   0  0  0  0  0  0  0  0  0  0  0  0
    4.1203    1.3488    0.0192 H   0  0  0  0  0  0  0  0  0  0  0  0
    6.5867    1.0542    0.1816 H   0  0  0  0  0  0  0  0  0  0  0  0
    7.7366   -0.6227   -1.2546 H   0  0  0  0  0  0  0  0  0  0  0  0
    6.4147   -1.9818   -2.8671 H   0  0  0  0  0  0  0  0  0  0  0  0
    3.9529   -1.6870   -3.0142 H   0  0  0  0  0  0  0  0  0  0  0  0
    3.4001   -3.0065   -0.3428 H   0  0  0  0  0  0  0  0  0  0  0  0
    4.9584   -3.6250    1.4785 H   0  0  0  0  0  0  0  0  0  0  0  0
    4.9544   -2.3450    3.6160 H   0  0  0  0  0  0  0  0  0  0  0  0
    3.3519   -0.4648    3.9228 H   0  0  0  0  0  0  0  0  0  0  0  0
    1.7859    0.1452    2.0954 H   0  0  0  0  0  0  0  0  0  0  0  0
  1  2  1  0  0  0  0
  1  5  1  0  0  0  0
  2  3  2  0  0  0  0
  2  6  1  0  0  0  0
  3  4  1  0  0  0  0
  4  5  1  0  0  0  0
  4 17  1  0  0  0  0
  4 40  1  6  0  0  0
  5 19  1  0  0  0  0
  5 41  1  6  0  0  0
  6 10  1  0  0  0  0
  6 13  1  0  0  0  0
  6 14  1  0  0  0  0
  7  8  1  0  0  0  0
  7 11  1  0  0  0  0
  7 18  1  0  0  0  0
  7 42  1  1  0  0  0
  8  9  1  0  0  0  0
  8 12  1  0  0  0  0
  8 43  1  6  0  0  0
  9 10  2  0  0  0  0
 10 11  1  0  0  0  0
 12 25  2  0  0  0  0
 12 29  1  0  0  0  0
 13 16  1  0  0  0  0
 13 44  1  0  0  0  0
 13 45  1  0  0  0  0
 14 15  1  0  0  0  0
 14 46  1  0  0  0  0
 14 47  1  0  0  0  0
 15 48  1  0  0  0  0
 15 49  1  0  0  0  0
 15 50  1  0  0  0  0
 16 51  1  0  0  0  0
 16 52  1  0  0  0  0
 16 53  1  0  0  0  0
 17 30  2  0  0  0  0
 17 34  1  0  0  0  0
 18 20  2  0  0  0  0
 18 24  1  0  0  0  0
 19 35  2  0  0  0  0
 19 39  1  0  0  0  0
 20 21  1  0  0  0  0
 20 54  1  0  0  0  0
 21 22  2  0  0  0  0
 21 55  1  0  0  0  0
 22 23  1  0  0  0  0
 22 56  1  0  0  0  0
 23 24  2  0  0  0  0
 23 57  1  0  0  0  0
 24 58  1  0  0  0  0
 25 26  1  0  0  0  0
 25 59  1  0  0  0  0
 26 27  2  0  0  0  0
 26 60  1  0  0  0  0
 27 28  1  0  0  0  0
 27 61  1  0  0  0  0
 28 29  2  0  0  0  0
 28 62  1  0  0  0  0
 29 63  1  0  0  0  0
 30 31  1  0  0  0  0
 30 64  1  0  0  0  0
 31 32  2  0  0  0  0
 31 65  1  0  0  0  0
 32 33  1  0  0  0  0
 32 66  1  0  0  0  0
 33 34  2  0  0  0  0
 33 67  1  0  0  0  0
 34 68  1  0  0  0  0
 35 36  1  0  0  0  0
 35 69  1  0  0  0  0
 36 37  2  0  0  0  0
 36 70  1  0  0  0  0
 37 38  1  0  0  0  0
 37 71  1  0  0  0  0
 38 39  2  0  0  0  0
 38 72  1  0  0  0  0
 39 73  1  0  0  0  0
M  END
$$$$
