Title Card Required
 OpenBabel03192317503D

 35 38  0  0  1  0  0  0  0  0999 V2000
   -0.4636    1.7704   -0.0252 O   0  0  0  0  0  0  0  0  0  0  0  0
   -0.2271    0.5158   -0.4443 C   0  0  0  0  0  0  0  0  0  0  0  0
   -1.1979   -0.1675   -0.8989 N   0  0  0  0  0  0  0  0  0  0  0  0
   -2.3722    0.6999   -0.8700 C   0  0  2  0  0  0  0  0  0  0  0  0
   -1.8792    1.9457   -0.0827 C   0  0  0  0  0  0  0  0  0  0  0  0
    2.0724    0.8290    0.1460 N   0  0  0  0  0  0  0  0  0  0  0  0
    1.1725    0.0249   -0.3585 C   0  0  0  0  0  0  0  0  0  0  0  0
    1.4499   -1.2894   -0.8333 C   0  0  0  0  0  0  0  0  0  0  0  0
    2.7371   -1.7471   -0.7558 C   0  0  0  0  0  0  0  0  0  0  0  0
    3.7464   -0.9066   -0.2139 C   0  0  0  0  0  0  0  0  0  0  0  0
    5.1057   -1.2980   -0.0970 C   0  0  0  0  0  0  0  0  0  0  0  0
    6.0334   -0.4350    0.4341 C   0  0  0  0  0  0  0  0  0  0  0  0
    5.6447    0.8570    0.8720 C   0  0  0  0  0  0  0  0  0  0  0  0
    4.3368    1.2622    0.7718 C   0  0  0  0  0  0  0  0  0  0  0  0
    3.3546    0.3906    0.2268 C   0  0  0  0  0  0  0  0  0  0  0  0
   -3.5980    0.0597   -0.2582 C   0  0  0  0  0  0  0  0  0  0  0  0
   -3.5102   -1.1159    0.4893 C   0  0  0  0  0  0  0  0  0  0  0  0
   -4.6501   -1.6567    1.0846 C   0  0  0  0  0  0  0  0  0  0  0  0
   -5.8853   -1.0273    0.9408 C   0  0  0  0  0  0  0  0  0  0  0  0
   -5.9794    0.1464    0.1928 C   0  0  0  0  0  0  0  0  0  0  0  0
   -4.8421    0.6831   -0.4057 C   0  0  0  0  0  0  0  0  0  0  0  0
   -2.6172    0.9721   -1.9116 H   0  0  0  0  0  0  0  0  0  0  0  0
   -2.1003    2.9012   -0.5740 H   0  0  0  0  0  0  0  0  0  0  0  0
   -2.2769    1.9613    0.9438 H   0  0  0  0  0  0  0  0  0  0  0  0
    0.6320   -1.8819   -1.2415 H   0  0  0  0  0  0  0  0  0  0  0  0
    3.0026   -2.7473   -1.1051 H   0  0  0  0  0  0  0  0  0  0  0  0
    5.3991   -2.2935   -0.4363 H   0  0  0  0  0  0  0  0  0  0  0  0
    7.0769   -0.7414    0.5206 H   0  0  0  0  0  0  0  0  0  0  0  0
    6.3940    1.5304    1.2908 H   0  0  0  0  0  0  0  0  0  0  0  0
    4.0051    2.2475    1.0999 H   0  0  0  0  0  0  0  0  0  0  0  0
   -2.5409   -1.6059    0.5900 H   0  0  0  0  0  0  0  0  0  0  0  0
   -4.5728   -2.5788    1.6631 H   0  0  0  0  0  0  0  0  0  0  0  0
   -6.7754   -1.4528    1.4066 H   0  0  0  0  0  0  0  0  0  0  0  0
   -6.9440    0.6417    0.0700 H   0  0  0  0  0  0  0  0  0  0  0  0
   -4.9202    1.5975   -1.0002 H   0  0  0  0  0  0  0  0  0  0  0  0
  1  2  1  0  0  0  0
  1  5  1  0  0  0  0
  2  3  2  0  0  0  0
  2  7  1  0  0  0  0
  3  4  1  0  0  0  0
  4  5  1  0  0  0  0
  4 16  1  0  0  0  0
  4 22  1  6  0  0  0
  5 23  1  0  0  0  0
  5 24  1  0  0  0  0
  6  7  2  0  0  0  0
  6 15  1  0  0  0  0
  7  8  1  0  0  0  0
  8  9  2  0  0  0  0
  8 25  1  0  0  0  0
  9 10  1  0  0  0  0
  9 26  1  0  0  0  0
 10 11  2  0  0  0  0
 10 15  1  0  0  0  0
 11 12  1  0  0  0  0
 11 27  1  0  0  0  0
 12 13  2  0  0  0  0
 12 28  1  0  0  0  0
 13 14  1  0  0  0  0
 13 29  1  0  0  0  0
 14 15  2  0  0  0  0
 14 30  1  0  0  0  0
 16 17  2  0  0  0  0
 16 21  1  0  0  0  0
 17 18  1  0  0  0  0
 17 31  1  0  0  0  0
 18 19  2  0  0  0  0
 18 32  1  0  0  0  0
 19 20  1  0  0  0  0
 19 33  1  0  0  0  0
 20 21  2  0  0  0  0
 20 34  1  0  0  0  0
 21 35  1  0  0  0  0
M  END
$$$$
