Title Card Required
 OpenBabel03192317493D

 69 74  0  0  1  0  0  0  0  0999 V2000
   -0.7930   -3.4270    2.7487 C   0  0  0  0  0  0  0  0  0  0  0  0
    0.6946   -3.7843    2.5471 C   0  0  0  0  0  0  0  0  0  0  0  0
    0.8470   -2.4449    1.9373 C   0  0  0  0  0  0  0  0  0  0  0  0
   -0.5155   -2.1612    1.9950 C   0  0  0  0  0  0  0  0  0  0  0  0
   -1.7902   -3.8562    3.2467 O   0  0  0  0  0  0  0  0  0  0  0  0
    1.4494   -4.6965    2.7247 O   0  0  0  0  0  0  0  0  0  0  0  0
   -1.4482   -1.2427    1.7179 N   0  0  0  0  0  0  0  0  0  0  0  0
   -1.5232   -0.2506    0.6384 C   0  0  1  0  0  0  0  0  0  0  0  0
   -1.0308   -1.7858   -1.3257 N   0  0  2  0  0  0  0  0  0  0  0  0
   -0.5842   -0.6456   -0.5238 C   0  0  1  0  0  0  0  0  0  0  0  0
   -0.1251    0.5092   -1.4344 C   0  0  0  0  0  0  0  0  0  0  0  0
    0.3257   -0.1438   -2.7541 C   0  0  1  0  0  0  0  0  0  0  0  0
    1.1602   -1.4100   -2.4298 C   0  0  1  0  0  0  0  0  0  0  0  0
    0.1804   -2.4525   -1.8220 C   0  0  0  0  0  0  0  0  0  0  0  0
   -0.9298   -0.5887   -3.5106 C   0  0  0  0  0  0  0  0  0  0  0  0
   -1.8137   -1.3584   -2.4984 C   0  0  0  0  0  0  0  0  0  0  0  0
    1.9722   -1.8766   -3.6056 C   0  0  0  0  0  0  0  0  0  0  0  0
    1.9925   -3.0938   -4.1492 C   0  0  0  0  0  0  0  0  0  0  0  0
   -5.6580    0.0091   -0.6726 N   0  0  0  0  0  0  0  0  0  0  0  0
   -5.1078   -1.1188   -0.3088 C   0  0  0  0  0  0  0  0  0  0  0  0
   -3.7717   -1.2338    0.1471 C   0  0  0  0  0  0  0  0  0  0  0  0
   -2.9768   -0.1119    0.2255 C   0  0  0  0  0  0  0  0  0  0  0  0
   -3.5511    1.1456   -0.1424 C   0  0  0  0  0  0  0  0  0  0  0  0
   -2.8647    2.3917   -0.0838 C   0  0  0  0  0  0  0  0  0  0  0  0
   -3.4878    3.5575   -0.4586 C   0  0  0  0  0  0  0  0  0  0  0  0
   -4.8289    3.5457   -0.9145 C   0  0  0  0  0  0  0  0  0  0  0  0
   -5.5211    2.3634   -0.9781 C   0  0  0  0  0  0  0  0  0  0  0  0
   -4.9075    1.1396   -0.5932 C   0  0  0  0  0  0  0  0  0  0  0  0
    2.0072   -1.9338    1.4325 N   0  0  0  0  0  0  0  0  0  0  0  0
    2.3050   -0.5920    1.2418 C   0  0  0  0  0  0  0  0  0  0  0  0
    1.5322    0.4113    1.8473 C   0  0  0  0  0  0  0  0  0  0  0  0
    1.8014    1.7454    1.5695 C   0  0  0  0  0  0  0  0  0  0  0  0
    2.8414    2.1224    0.7197 C   0  0  0  0  0  0  0  0  0  0  0  0
    3.6128    1.1184    0.1440 C   0  0  0  0  0  0  0  0  0  0  0  0
    3.3618   -0.2259    0.4009 C   0  0  0  0  0  0  0  0  0  0  0  0
    4.6809    1.4614   -0.8627 C   0  0  0  0  0  0  0  0  0  0  0  0
    5.0619    2.7320   -0.7662 F   0  0  0  0  0  0  0  0  0  0  0  0
    5.7584    0.6930   -0.7128 F   0  0  0  0  0  0  0  0  0  0  0  0
    4.2329    1.2689   -2.1080 F   0  0  0  0  0  0  0  0  0  0  0  0
    0.9059    2.8207    2.1265 C   0  0  0  0  0  0  0  0  0  0  0  0
    0.1213    2.3683    3.1015 F   0  0  0  0  0  0  0  0  0  0  0  0
    1.5999    3.8522    2.5943 F   0  0  0  0  0  0  0  0  0  0  0  0
    0.1000    3.2960    1.1624 F   0  0  0  0  0  0  0  0  0  0  0  0
   -2.3404   -1.4729    2.1500 H   0  0  0  0  0  0  0  0  0  0  0  0
   -1.1626    0.7185    1.0169 H   0  0  0  0  0  0  0  0  0  0  0  0
    0.3179   -1.0034   -0.0207 H   0  0  0  0  0  0  0  0  0  0  0  0
   -0.9378    1.2260   -1.6362 H   0  0  0  0  0  0  0  0  0  0  0  0
    0.6958    1.0653   -0.9520 H   0  0  0  0  0  0  0  0  0  0  0  0
    0.9245    0.5594   -3.3507 H   0  0  0  0  0  0  0  0  0  0  0  0
    1.8920   -1.1082   -1.6568 H   0  0  0  0  0  0  0  0  0  0  0  0
   -0.1368   -3.1833   -2.5798 H   0  0  0  0  0  0  0  0  0  0  0  0
    0.6584   -3.0120   -1.0024 H   0  0  0  0  0  0  0  0  0  0  0  0
   -0.6442   -1.2229   -4.3640 H   0  0  0  0  0  0  0  0  0  0  0  0
   -1.4691    0.2807   -3.9143 H   0  0  0  0  0  0  0  0  0  0  0  0
   -2.2616   -2.2546   -2.9521 H   0  0  0  0  0  0  0  0  0  0  0  0
   -2.6449   -0.7288   -2.1614 H   0  0  0  0  0  0  0  0  0  0  0  0
    2.6291   -1.1073   -4.0301 H   0  0  0  0  0  0  0  0  0  0  0  0
    2.6415   -3.3139   -4.9986 H   0  0  0  0  0  0  0  0  0  0  0  0
    1.3812   -3.9172   -3.7740 H   0  0  0  0  0  0  0  0  0  0  0  0
   -5.7283   -2.0188   -0.3748 H   0  0  0  0  0  0  0  0  0  0  0  0
   -3.3687   -2.2190    0.3864 H   0  0  0  0  0  0  0  0  0  0  0  0
   -1.8344    2.4356    0.2646 H   0  0  0  0  0  0  0  0  0  0  0  0
   -2.9434    4.5010   -0.3990 H   0  0  0  0  0  0  0  0  0  0  0  0
   -5.3090    4.4799   -1.2091 H   0  0  0  0  0  0  0  0  0  0  0  0
   -6.5559    2.3105   -1.3169 H   0  0  0  0  0  0  0  0  0  0  0  0
    2.7570   -2.6119    1.3283 H   0  0  0  0  0  0  0  0  0  0  0  0
    0.7202    0.1448    2.5259 H   0  0  0  0  0  0  0  0  0  0  0  0
    3.0426    3.1730    0.5090 H   0  0  0  0  0  0  0  0  0  0  0  0
    3.9694   -0.9956   -0.0799 H   0  0  0  0  0  0  0  0  0  0  0  0
  1  2  1  0  0  0  0
  1  4  1  0  0  0  0
  1  5  2  0  0  0  0
  2  3  1  0  0  0  0
  2  6  2  0  0  0  0
  3  4  2  0  0  0  0
  3 29  1  0  0  0  0
  4  7  1  0  0  0  0
  7  8  1  0  0  0  0
  7 44  1  0  0  0  0
  8 10  1  0  0  0  0
  8 22  1  0  0  0  0
  8 45  1  1  0  0  0
  9 10  1  0  0  0  0
  9 14  1  6  0  0  0
  9 16  1  0  0  0  0
 10 11  1  0  0  0  0
 10 46  1  1  0  0  0
 11 12  1  0  0  0  0
 11 47  1  0  0  0  0
 11 48  1  0  0  0  0
 12 13  1  0  0  0  0
 12 15  1  0  0  0  0
 12 49  1  6  0  0  0
 13 14  1  0  0  0  0
 13 17  1  0  0  0  0
 13 50  1  1  0  0  0
 14 51  1  0  0  0  0
 14 52  1  0  0  0  0
 15 16  1  0  0  0  0
 15 53  1  0  0  0  0
 15 54  1  0  0  0  0
 16 55  1  0  0  0  0
 16 56  1  0  0  0  0
 17 18  2  0  0  0  0
 17 57  1  0  0  0  0
 18 58  1  0  0  0  0
 18 59  1  0  0  0  0
 19 20  2  0  0  0  0
 19 28  1  0  0  0  0
 20 21  1  0  0  0  0
 20 60  1  0  0  0  0
 21 22  2  0  0  0  0
 21 61  1  0  0  0  0
 22 23  1  0  0  0  0
 23 24  2  0  0  0  0
 23 28  1  0  0  0  0
 24 25  1  0  0  0  0
 24 62  1  0  0  0  0
 25 26  2  0  0  0  0
 25 63  1  0  0  0  0
 26 27  1  0  0  0  0
 26 64  1  0  0  0  0
 27 28  2  0  0  0  0
 27 65  1  0  0  0  0
 29 30  1  0  0  0  0
 29 66  1  0  0  0  0
 30 31  2  0  0  0  0
 30 35  1  0  0  0  0
 31 32  1  0  0  0  0
 31 67  1  0  0  0  0
 32 33  2  0  0  0  0
 32 40  1  0  0  0  0
 33 34  1  0  0  0  0
 33 68  1  0  0  0  0
 34 35  2  0  0  0  0
 34 36  1  0  0  0  0
 35 69  1  0  0  0  0
 36 37  1  0  0  0  0
 36 38  1  0  0  0  0
 36 39  1  0  0  0  0
 40 41  1  0  0  0  0
 40 42  1  0  0  0  0
 40 43  1  0  0  0  0
M  END
$$$$
