Title Card Required
 OpenBabel03192317413D

 64 70  0  0  0  0  0  0  0  0999 V2000
    1.0213    0.0332   -0.8324 O   0  0  0  0  0  0  0  0  0  0  0  0
    0.0295   -1.0415   -0.1321 P   0  0  0  0  0  0  0  0  0  0  0  0
   -0.9596   -0.0535    0.6800 O   0  0  0  0  0  0  0  0  0  0  0  0
   -1.5089    1.0099   -0.0147 C   0  0  0  0  0  0  0  0  0  0  0  0
   -0.7177    2.1112   -0.2796 C   0  0  0  0  0  0  0  0  0  0  0  0
    0.6814    2.1312    0.2322 C   0  0  0  0  0  0  0  0  0  0  0  0
    1.5148    1.0731   -0.0717 C   0  0  0  0  0  0  0  0  0  0  0  0
   -2.8599    0.8937   -0.4494 C   0  0  0  0  0  0  0  0  0  0  0  0
   -3.3836    1.9360   -1.1806 C   0  0  0  0  0  0  0  0  0  0  0  0
   -2.6095    3.0738   -1.5261 C   0  0  0  0  0  0  0  0  0  0  0  0
   -3.1568    4.1158   -2.3239 C   0  0  0  0  0  0  0  0  0  0  0  0
   -2.3901    5.1903   -2.6987 C   0  0  0  0  0  0  0  0  0  0  0  0
   -1.0342    5.2641   -2.2968 C   0  0  0  0  0  0  0  0  0  0  0  0
   -0.4806    4.2794   -1.5143 C   0  0  0  0  0  0  0  0  0  0  0  0
   -1.2563    3.1651   -1.0897 C   0  0  0  0  0  0  0  0  0  0  0  0
    2.8570    0.9752    0.3943 C   0  0  0  0  0  0  0  0  0  0  0  0
    3.3384    2.0048    1.1704 C   0  0  0  0  0  0  0  0  0  0  0  0
    2.5259    3.1086    1.5378 C   0  0  0  0  0  0  0  0  0  0  0  0
    3.0308    4.1387    2.3775 C   0  0  0  0  0  0  0  0  0  0  0  0
    2.2247    5.1724    2.7837 C   0  0  0  0  0  0  0  0  0  0  0  0
    0.8703    5.2136    2.3726 C   0  0  0  0  0  0  0  0  0  0  0  0
    0.3571    4.2398    1.5497 C   0  0  0  0  0  0  0  0  0  0  0  0
    1.1742    3.1698    1.0904 C   0  0  0  0  0  0  0  0  0  0  0  0
    3.6907   -0.2157    0.0880 C   0  0  0  0  0  0  0  0  0  0  0  0
    3.7614   -0.7508   -1.2048 C   0  0  0  0  0  0  0  0  0  0  0  0
    4.5704   -1.8523   -1.4716 C   0  0  0  0  0  0  0  0  0  0  0  0
    5.3106   -2.4339   -0.4452 C   0  0  0  0  0  0  0  0  0  0  0  0
    5.2440   -1.9191    0.8503 C   0  0  0  0  0  0  0  0  0  0  0  0
    4.4375   -0.8179    1.1121 C   0  0  0  0  0  0  0  0  0  0  0  0
    6.2088   -3.6117   -0.7104 C   0  0  0  0  0  0  0  0  0  0  0  0
    6.0625   -4.0837   -1.9482 F   0  0  0  0  0  0  0  0  0  0  0  0
    7.4952   -3.2871   -0.5555 F   0  0  0  0  0  0  0  0  0  0  0  0
    5.9607   -4.6139    0.1378 F   0  0  0  0  0  0  0  0  0  0  0  0
   -3.6737   -0.3075   -0.1305 C   0  0  0  0  0  0  0  0  0  0  0  0
   -3.7025   -0.8411    1.1638 C   0  0  0  0  0  0  0  0  0  0  0  0
   -4.5125   -1.9332    1.4607 C   0  0  0  0  0  0  0  0  0  0  0  0
   -5.2944   -2.5071    0.4613 C   0  0  0  0  0  0  0  0  0  0  0  0
   -5.2657   -1.9961   -0.8365 C   0  0  0  0  0  0  0  0  0  0  0  0
   -4.4591   -0.9027   -1.1278 C   0  0  0  0  0  0  0  0  0  0  0  0
   -6.1961   -3.6738    0.7599 C   0  0  0  0  0  0  0  0  0  0  0  0
   -6.0392   -4.1219    2.0063 F   0  0  0  0  0  0  0  0  0  0  0  0
   -7.4830   -3.3427    0.6149 F   0  0  0  0  0  0  0  0  0  0  0  0
   -5.9679   -4.6951   -0.0689 F   0  0  0  0  0  0  0  0  0  0  0  0
    0.8437   -1.6326    1.1046 O   0  0  0  0  0  0  0  0  0  0  0  0
   -0.5341   -1.9923   -1.0864 O   0  0  0  0  0  0  0  0  0  0  0  0
   -4.4241    1.8892   -1.5096 H   0  0  0  0  0  0  0  0  0  0  0  0
   -4.1982    4.0370   -2.6419 H   0  0  0  0  0  0  0  0  0  0  0  0
   -2.8173    5.9813   -3.3162 H   0  0  0  0  0  0  0  0  0  0  0  0
   -0.4209    6.1078   -2.6161 H   0  0  0  0  0  0  0  0  0  0  0  0
    0.5677    4.3418   -1.2220 H   0  0  0  0  0  0  0  0  0  0  0  0
    4.3715    1.9728    1.5241 H   0  0  0  0  0  0  0  0  0  0  0  0
    4.0716    4.0831    2.7027 H   0  0  0  0  0  0  0  0  0  0  0  0
    2.6193    5.9546    3.4334 H   0  0  0  0  0  0  0  0  0  0  0  0
    0.2254    6.0230    2.7173 H   0  0  0  0  0  0  0  0  0  0  0  0
   -0.6902    4.2777    1.2502 H   0  0  0  0  0  0  0  0  0  0  0  0
    3.1822   -0.2976   -2.0089 H   0  0  0  0  0  0  0  0  0  0  0  0
    4.6280   -2.2615   -2.4803 H   0  0  0  0  0  0  0  0  0  0  0  0
    5.8153   -2.3886    1.6532 H   0  0  0  0  0  0  0  0  0  0  0  0
    4.3629   -0.4274    2.1284 H   0  0  0  0  0  0  0  0  0  0  0  0
   -3.0920   -0.3911    1.9466 H   0  0  0  0  0  0  0  0  0  0  0  0
   -4.5404   -2.3405    2.4713 H   0  0  0  0  0  0  0  0  0  0  0  0
   -5.8670   -2.4620   -1.6192 H   0  0  0  0  0  0  0  0  0  0  0  0
   -4.4162   -0.5147   -2.1467 H   0  0  0  0  0  0  0  0  0  0  0  0
    1.1767   -2.5213    0.9156 H   0  0  0  0  0  0  0  0  0  0  0  0
  1  2  1  0  0  0  0
  1  7  1  0  0  0  0
  2  3  1  0  0  0  0
  2 44  1  0  0  0  0
  2 45  2  0  0  0  0
  3  4  1  0  0  0  0
  4  5  2  0  0  0  0
  4  8  1  0  0  0  0
  5  6  1  0  0  0  0
  5 15  1  0  0  0  0
  6  7  2  0  0  0  0
  6 23  1  0  0  0  0
  7 16  1  0  0  0  0
  8  9  2  0  0  0  0
  8 34  1  0  0  0  0
  9 10  1  0  0  0  0
  9 46  1  0  0  0  0
 10 11  2  0  0  0  0
 10 15  1  0  0  0  0
 11 12  1  0  0  0  0
 11 47  1  0  0  0  0
 12 13  2  0  0  0  0
 12 48  1  0  0  0  0
 13 14  1  0  0  0  0
 13 49  1  0  0  0  0
 14 15  2  0  0  0  0
 14 50  1  0  0  0  0
 16 17  2  0  0  0  0
 16 24  1  0  0  0  0
 17 18  1  0  0  0  0
 17 51  1  0  0  0  0
 18 19  2  0  0  0  0
 18 23  1  0  0  0  0
 19 20  1  0  0  0  0
 19 52  1  0  0  0  0
 20 21  2  0  0  0  0
 20 53  1  0  0  0  0
 21 22  1  0  0  0  0
 21 54  1  0  0  0  0
 22 23  2  0  0  0  0
 22 55  1  0  0  0  0
 24 25  2  0  0  0  0
 24 29  1  0  0  0  0
 25 26  1  0  0  0  0
 25 56  1  0  0  0  0
 26 27  2  0  0  0  0
 26 57  1  0  0  0  0
 27 28  1  0  0  0  0
 27 30  1  0  0  0  0
 28 29  2  0  0  0  0
 28 58  1  0  0  0  0
 29 59  1  0  0  0  0
 30 31  1  0  0  0  0
 30 32  1  0  0  0  0
 30 33  1  0  0  0  0
 34 35  2  0  0  0  0
 34 39  1  0  0  0  0
 35 36  1  0  0  0  0
 35 60  1  0  0  0  0
 36 37  2  0  0  0  0
 36 61  1  0  0  0  0
 37 38  1  0  0  0  0
 37 40  1  0  0  0  0
 38 39  2  0  0  0  0
 38 62  1  0  0  0  0
 39 63  1  0  0  0  0
 40 41  1  0  0  0  0
 40 42  1  0  0  0  0
 40 43  1  0  0  0  0
 44 64  1  0  0  0  0
M  END
$$$$
