Title Card Required
 OpenBabel03192317443D

 60 67  0  0  0  0  0  0  0  0999 V2000
    2.3922   -0.4972    0.0148 N   0  0  0  0  0  0  0  0  0  0  0  0
    2.2292    0.8749    0.3780 C   0  0  0  0  0  0  0  0  0  0  0  0
    2.9452    1.8627   -0.3262 C   0  0  0  0  0  0  0  0  0  0  0  0
    3.9234    1.5444   -1.3726 C   0  0  0  0  0  0  0  0  0  0  0  0
    4.7157    0.4587   -1.4597 C   0  0  0  0  0  0  0  0  0  0  0  0
    4.7859   -0.6656   -0.5209 C   0  0  0  0  0  0  0  0  0  0  0  0
    3.6724   -1.0923    0.2275 C   0  0  0  0  0  0  0  0  0  0  0  0
    2.6963    3.2103   -0.0200 C   0  0  0  0  0  0  0  0  0  0  0  0
    1.7783    3.5720    0.9578 C   0  0  0  0  0  0  0  0  0  0  0  0
    1.0895    2.5821    1.6607 C   0  0  0  0  0  0  0  0  0  0  0  0
    1.3270    1.2392    1.3835 C   0  0  0  0  0  0  0  0  0  0  0  0
    3.7931   -2.1470    1.1351 C   0  0  0  0  0  0  0  0  0  0  0  0
    5.0070   -2.8121    1.2894 C   0  0  0  0  0  0  0  0  0  0  0  0
    6.1129   -2.4123    0.5400 C   0  0  0  0  0  0  0  0  0  0  0  0
    5.9978   -1.3521   -0.3534 C   0  0  0  0  0  0  0  0  0  0  0  0
    0.2738   -0.5183   -1.5839 O   0  0  0  0  0  0  0  0  0  0  0  0
    1.1782   -1.5147   -0.6015 P   0  0  0  0  0  0  0  0  0  0  0  0
    0.1467   -1.4899    0.7431 O   0  0  0  0  0  0  0  0  0  0  0  0
   -1.1514   -1.8804    0.5444 C   0  0  0  0  0  0  0  0  0  0  0  0
   -2.0488   -0.9918   -0.0185 C   0  0  0  0  0  0  0  0  0  0  0  0
   -1.5914    0.3789   -0.3694 C   0  0  0  0  0  0  0  0  0  0  0  0
   -0.4825    0.5499   -1.1775 C   0  0  0  0  0  0  0  0  0  0  0  0
   -1.5286   -3.1891    0.9324 C   0  0  0  0  0  0  0  0  0  0  0  0
   -2.8179   -3.6089    0.7423 C   0  0  0  0  0  0  0  0  0  0  0  0
   -3.7727   -2.7581    0.1209 C   0  0  0  0  0  0  0  0  0  0  0  0
   -5.0996   -3.2027   -0.1283 C   0  0  0  0  0  0  0  0  0  0  0  0
   -6.0050   -2.3958   -0.7708 C   0  0  0  0  0  0  0  0  0  0  0  0
   -5.6137   -1.1058   -1.2037 C   0  0  0  0  0  0  0  0  0  0  0  0
   -4.3418   -0.6434   -0.9676 C   0  0  0  0  0  0  0  0  0  0  0  0
   -3.3858   -1.4451   -0.2821 C   0  0  0  0  0  0  0  0  0  0  0  0
   -0.0891    1.8257   -1.6528 C   0  0  0  0  0  0  0  0  0  0  0  0
   -0.7563    2.9436   -1.2378 C   0  0  0  0  0  0  0  0  0  0  0  0
   -1.8264    2.8423   -0.3058 C   0  0  0  0  0  0  0  0  0  0  0  0
   -2.4646    4.0020    0.2085 C   0  0  0  0  0  0  0  0  0  0  0  0
   -3.4659    3.9019    1.1434 C   0  0  0  0  0  0  0  0  0  0  0  0
   -3.8673    2.6263    1.6062 C   0  0  0  0  0  0  0  0  0  0  0  0
   -3.2766    1.4852    1.1169 C   0  0  0  0  0  0  0  0  0  0  0  0
   -2.2458    1.5545    0.1382 C   0  0  0  0  0  0  0  0  0  0  0  0
    4.0800    2.3334   -2.1142 H   0  0  0  0  0  0  0  0  0  0  0  0
    5.4564    0.4417   -2.2639 H   0  0  0  0  0  0  0  0  0  0  0  0
    3.2393    3.9812   -0.5714 H   0  0  0  0  0  0  0  0  0  0  0  0
    1.5940    4.6262    1.1706 H   0  0  0  0  0  0  0  0  0  0  0  0
    0.3570    2.8548    2.4223 H   0  0  0  0  0  0  0  0  0  0  0  0
    0.7882    0.4525    1.9102 H   0  0  0  0  0  0  0  0  0  0  0  0
    2.9119   -2.4386    1.7100 H   0  0  0  0  0  0  0  0  0  0  0  0
    5.0869   -3.6428    1.9917 H   0  0  0  0  0  0  0  0  0  0  0  0
    7.0673   -2.9289    0.6504 H   0  0  0  0  0  0  0  0  0  0  0  0
    6.8628   -1.0401   -0.9426 H   0  0  0  0  0  0  0  0  0  0  0  0
   -0.7721   -3.8299    1.3861 H   0  0  0  0  0  0  0  0  0  0  0  0
   -3.1249   -4.6108    1.0487 H   0  0  0  0  0  0  0  0  0  0  0  0
   -5.3813   -4.2070    0.1951 H   0  0  0  0  0  0  0  0  0  0  0  0
   -7.0197   -2.7489   -0.9601 H   0  0  0  0  0  0  0  0  0  0  0  0
   -6.3267   -0.4750   -1.7365 H   0  0  0  0  0  0  0  0  0  0  0  0
   -4.0499    0.3470   -1.3164 H   0  0  0  0  0  0  0  0  0  0  0  0
    0.7626    1.8731   -2.3314 H   0  0  0  0  0  0  0  0  0  0  0  0
   -0.4515    3.9316   -1.5890 H   0  0  0  0  0  0  0  0  0  0  0  0
   -2.1337    4.9792   -0.1500 H   0  0  0  0  0  0  0  0  0  0  0  0
   -3.9454    4.7997    1.5359 H   0  0  0  0  0  0  0  0  0  0  0  0
   -4.6493    2.5456    2.3628 H   0  0  0  0  0  0  0  0  0  0  0  0
   -3.5897    0.5094    1.4891 H   0  0  0  0  0  0  0  0  0  0  0  0
  1  2  1  0  0  0  0
  1  7  1  0  0  0  0
  1 17  1  0  0  0  0
  2  3  2  0  0  0  0
  2 11  1  0  0  0  0
  3  4  1  0  0  0  0
  3  8  1  0  0  0  0
  4  5  2  0  0  0  0
  4 39  1  0  0  0  0
  5  6  1  0  0  0  0
  5 40  1  0  0  0  0
  6  7  2  0  0  0  0
  6 15  1  0  0  0  0
  7 12  1  0  0  0  0
  8  9  2  0  0  0  0
  8 41  1  0  0  0  0
  9 10  1  0  0  0  0
  9 42  1  0  0  0  0
 10 11  2  0  0  0  0
 10 43  1  0  0  0  0
 11 44  1  0  0  0  0
 12 13  2  0  0  0  0
 12 45  1  0  0  0  0
 13 14  1  0  0  0  0
 13 46  1  0  0  0  0
 14 15  2  0  0  0  0
 14 47  1  0  0  0  0
 15 48  1  0  0  0  0
 16 17  1  0  0  0  0
 16 22  1  0  0  0  0
 17 18  1  0  0  0  0
 18 19  1  0  0  0  0
 19 20  2  0  0  0  0
 19 23  1  0  0  0  0
 20 21  1  0  0  0  0
 20 30  1  0  0  0  0
 21 22  2  0  0  0  0
 21 38  1  0  0  0  0
 22 31  1  0  0  0  0
 23 24  2  0  0  0  0
 23 49  1  0  0  0  0
 24 25  1  0  0  0  0
 24 50  1  0  0  0  0
 25 26  2  0  0  0  0
 25 30  1  0  0  0  0
 26 27  1  0  0  0  0
 26 51  1  0  0  0  0
 27 28  2  0  0  0  0
 27 52  1  0  0  0  0
 28 29  1  0  0  0  0
 28 53  1  0  0  0  0
 29 30  2  0  0  0  0
 29 54  1  0  0  0  0
 31 32  2  0  0  0  0
 31 55  1  0  0  0  0
 32 33  1  0  0  0  0
 32 56  1  0  0  0  0
 33 34  2  0  0  0  0
 33 38  1  0  0  0  0
 34 35  1  0  0  0  0
 34 57  1  0  0  0  0
 35 36  2  0  0  0  0
 35 58  1  0  0  0  0
 36 37  1  0  0  0  0
 36 59  1  0  0  0  0
 37 38  2  0  0  0  0
 37 60  1  0  0  0  0
M  END
$$$$
