Title Card Required
 OpenBabel03192317493D

 48 51  0  0  0  0  0  0  0  0999 V2000
   -1.4417    2.7215   -1.1228 C   0  0  0  0  0  0  0  0  0  0  0  0
   -1.2176    1.3166   -1.2157 C   0  0  0  0  0  0  0  0  0  0  0  0
   -0.1193    0.7341   -0.5079 C   0  0  0  0  0  0  0  0  0  0  0  0
    0.6988    1.5618    0.2236 C   0  0  0  0  0  0  0  0  0  0  0  0
    0.5028    2.9586    0.3146 C   0  0  0  0  0  0  0  0  0  0  0  0
   -0.5543    3.5206   -0.3519 C   0  0  0  0  0  0  0  0  0  0  0  0
    0.1194   -0.7340   -0.5079 C   0  0  0  0  0  0  0  0  0  0  0  0
    1.2176   -1.3165   -1.2157 C   0  0  0  0  0  0  0  0  0  0  0  0
    1.4417   -2.7215   -1.1228 C   0  0  0  0  0  0  0  0  0  0  0  0
    0.5543   -3.5205   -0.3520 C   0  0  0  0  0  0  0  0  0  0  0  0
   -0.5028   -2.9585    0.3145 C   0  0  0  0  0  0  0  0  0  0  0  0
   -0.6988   -1.5618    0.2235 C   0  0  0  0  0  0  0  0  0  0  0  0
   -2.5537    3.2901   -1.7993 C   0  0  0  0  0  0  0  0  0  0  0  0
   -3.4010    2.5034   -2.5404 C   0  0  0  0  0  0  0  0  0  0  0  0
   -3.1637    1.1120   -2.6506 C   0  0  0  0  0  0  0  0  0  0  0  0
   -2.0955    0.5317   -2.0105 C   0  0  0  0  0  0  0  0  0  0  0  0
    2.0955   -0.5317   -2.0106 C   0  0  0  0  0  0  0  0  0  0  0  0
    3.1637   -1.1120   -2.6507 C   0  0  0  0  0  0  0  0  0  0  0  0
    3.4010   -2.5034   -2.5404 C   0  0  0  0  0  0  0  0  0  0  0  0
    2.5538   -3.2901   -1.7993 C   0  0  0  0  0  0  0  0  0  0  0  0
    1.7307    0.9673    0.9548 O   0  0  0  0  0  0  0  0  0  0  0  0
    3.2282    1.5611    0.8183 S   0  0  0  0  0  0  0  0  0  0  0  0
    3.5472    1.8030   -0.5636 O   0  0  0  0  0  1  0  0  0  0  0  0
    3.4567    2.5492    1.8372 O   0  0  0  0  0  1  0  0  0  0  0  0
    4.0612    0.0018    1.3647 C   0  0  0  0  0  0  0  0  0  0  0  0
    3.7748   -0.9832    0.5455 F   0  0  0  0  0  0  0  0  0  0  0  0
    5.3594    0.2311    1.3521 F   0  0  0  0  0  0  0  0  0  0  0  0
    3.6718   -0.2968    2.5838 F   0  0  0  0  0  0  0  0  0  0  0  0
   -1.7307   -0.9672    0.9547 O   0  0  0  0  0  0  0  0  0  0  0  0
   -3.2281   -1.5610    0.8182 S   0  0  0  0  0  0  0  0  0  0  0  0
   -3.5471   -1.8029   -0.5638 O   0  0  0  0  0  1  0  0  0  0  0  0
   -3.4566   -2.5493    1.8370 O   0  0  0  0  0  1  0  0  0  0  0  0
   -4.0613   -0.0019    1.3647 C   0  0  0  0  0  0  0  0  0  0  0  0
   -3.7753    0.9832    0.5455 F   0  0  0  0  0  0  0  0  0  0  0  0
   -5.3595   -0.2315    1.3523 F   0  0  0  0  0  0  0  0  0  0  0  0
   -3.6718    0.2969    2.5838 F   0  0  0  0  0  0  0  0  0  0  0  0
    1.1775    3.5560    0.9294 H   0  0  0  0  0  0  0  0  0  0  0  0
   -0.7315    4.5955   -0.2873 H   0  0  0  0  0  0  0  0  0  0  0  0
    0.7315   -4.5954   -0.2874 H   0  0  0  0  0  0  0  0  0  0  0  0
   -1.1776   -3.5560    0.9293 H   0  0  0  0  0  0  0  0  0  0  0  0
   -2.7219    4.3657   -1.7168 H   0  0  0  0  0  0  0  0  0  0  0  0
   -4.2551    2.9502   -3.0510 H   0  0  0  0  0  0  0  0  0  0  0  0
   -3.8348    0.4924   -3.2469 H   0  0  0  0  0  0  0  0  0  0  0  0
   -1.9254   -0.5414   -2.0991 H   0  0  0  0  0  0  0  0  0  0  0  0
    1.9254    0.5414   -2.0992 H   0  0  0  0  0  0  0  0  0  0  0  0
    3.8348   -0.4924   -3.2470 H   0  0  0  0  0  0  0  0  0  0  0  0
    4.2552   -2.9502   -3.0510 H   0  0  0  0  0  0  0  0  0  0  0  0
    2.7220   -4.3657   -1.7167 H   0  0  0  0  0  0  0  0  0  0  0  0
  1  2  1  0  0  0  0
  1  6  2  0  0  0  0
  1 13  1  0  0  0  0
  2  3  2  0  0  0  0
  2 16  1  0  0  0  0
  3  4  1  0  0  0  0
  3  7  1  0  0  0  0
  4  5  2  0  0  0  0
  4 21  1  0  0  0  0
  5  6  1  0  0  0  0
  5 37  1  0  0  0  0
  6 38  1  0  0  0  0
  7  8  2  0  0  0  0
  7 12  1  0  0  0  0
  8  9  1  0  0  0  0
  8 17  1  0  0  0  0
  9 10  2  0  0  0  0
  9 20  1  0  0  0  0
 10 11  1  0  0  0  0
 10 39  1  0  0  0  0
 11 12  2  0  0  0  0
 11 40  1  0  0  0  0
 12 29  1  0  0  0  0
 13 14  2  0  0  0  0
 13 41  1  0  0  0  0
 14 15  1  0  0  0  0
 14 42  1  0  0  0  0
 15 16  2  0  0  0  0
 15 43  1  0  0  0  0
 16 44  1  0  0  0  0
 17 18  2  0  0  0  0
 17 45  1  0  0  0  0
 18 19  1  0  0  0  0
 18 46  1  0  0  0  0
 19 20  2  0  0  0  0
 19 47  1  0  0  0  0
 20 48  1  0  0  0  0
 21 22  1  0  0  0  0
 22 23  1  0  0  0  0
 22 24  1  0  0  0  0
 22 25  1  0  0  0  0
 25 26  1  0  0  0  0
 25 27  1  0  0  0  0
 25 28  1  0  0  0  0
 29 30  1  0  0  0  0
 30 31  1  0  0  0  0
 30 32  1  0  0  0  0
 30 33  1  0  0  0  0
 33 34  1  0  0  0  0
 33 35  1  0  0  0  0
 33 36  1  0  0  0  0
M  END
$$$$
