Title Card Required
 OpenBabel03192317513D

 34 33  0  0  1  0  0  0  0  0999 V2000
   -4.0140    0.1447    0.7733 C   0  0  0  0  0  0  0  0  0  0  0  0
   -2.5162    0.3575    0.5535 C   0  0  0  0  0  0  0  0  0  0  0  0
   -1.9193   -0.8241   -0.2317 C   0  0  2  0  0  0  0  0  0  0  0  0
   -0.4300   -0.6951   -0.5202 C   0  0  0  0  0  0  0  0  0  0  0  0
    0.4277   -0.4912    0.7215 C   0  0  0  0  0  0  0  0  0  0  0  0
    1.9238   -0.7023    0.4938 C   0  0  1  0  0  0  0  0  0  0  0  0
    2.5184    0.1504   -0.6407 C   0  0  0  0  0  0  0  0  0  0  0  0
    2.3156    1.6459   -0.4007 C   0  0  0  0  0  0  0  0  0  0  0  0
   -2.5492   -0.9784   -1.4867 O   0  0  0  0  0  0  0  0  0  0  0  0
    2.6303   -0.5216    1.7037 O   0  0  0  0  0  0  0  0  0  0  0  0
    3.9983   -0.1802   -0.8187 C   0  0  0  0  0  0  0  0  0  0  0  0
   -2.2564    1.6906   -0.1446 C   0  0  0  0  0  0  0  0  0  0  0  0
   -4.4304    0.9154    1.4370 H   0  0  0  0  0  0  0  0  0  0  0  0
   -4.2207   -0.8375    1.2271 H   0  0  0  0  0  0  0  0  0  0  0  0
   -4.5618    0.2107   -0.1806 H   0  0  0  0  0  0  0  0  0  0  0  0
   -2.0296    0.3647    1.5437 H   0  0  0  0  0  0  0  0  0  0  0  0
   -2.0686   -1.7364    0.3828 H   0  0  0  0  0  0  0  0  0  0  0  0
   -0.1201   -1.6116   -1.0488 H   0  0  0  0  0  0  0  0  0  0  0  0
   -0.2912    0.1299   -1.2375 H   0  0  0  0  0  0  0  0  0  0  0  0
    0.2736    0.5253    1.1283 H   0  0  0  0  0  0  0  0  0  0  0  0
    0.1181   -1.1877    1.5184 H   0  0  0  0  0  0  0  0  0  0  0  0
    2.0837   -1.7609    0.2260 H   0  0  0  0  0  0  0  0  0  0  0  0
    1.9854   -0.1259   -1.5660 H   0  0  0  0  0  0  0  0  0  0  0  0
    2.7837    1.9580    0.5477 H   0  0  0  0  0  0  0  0  0  0  0  0
    2.7869    2.2360   -1.1995 H   0  0  0  0  0  0  0  0  0  0  0  0
    1.2510    1.9226   -0.3671 H   0  0  0  0  0  0  0  0  0  0  0  0
   -3.4673   -1.2280   -1.3414 H   0  0  0  0  0  0  0  0  0  0  0  0
    2.4235    0.3586    2.0378 H   0  0  0  0  0  0  0  0  0  0  0  0
    4.1413   -1.2485   -1.0382 H   0  0  0  0  0  0  0  0  0  0  0  0
    4.4403    0.4007   -1.6409 H   0  0  0  0  0  0  0  0  0  0  0  0
    4.5473    0.0443    0.1068 H   0  0  0  0  0  0  0  0  0  0  0  0
   -2.7864    2.5104    0.3615 H   0  0  0  0  0  0  0  0  0  0  0  0
   -1.1865    1.9455   -0.1617 H   0  0  0  0  0  0  0  0  0  0  0  0
   -2.6091    1.6380   -1.1855 H   0  0  0  0  0  0  0  0  0  0  0  0
  1  2  1  0  0  0  0
  1 13  1  0  0  0  0
  1 14  1  0  0  0  0
  1 15  1  0  0  0  0
  2  3  1  0  0  0  0
  2 12  1  0  0  0  0
  2 16  1  0  0  0  0
  3  4  1  0  0  0  0
  3  9  1  0  0  0  0
  3 17  1  1  0  0  0
  4  5  1  0  0  0  0
  4 18  1  0  0  0  0
  4 19  1  0  0  0  0
  5  6  1  0  0  0  0
  5 20  1  0  0  0  0
  5 21  1  0  0  0  0
  6  7  1  0  0  0  0
  6 10  1  0  0  0  0
  6 22  1  6  0  0  0
  7  8  1  0  0  0  0
  7 11  1  0  0  0  0
  7 23  1  0  0  0  0
  8 24  1  0  0  0  0
  8 25  1  0  0  0  0
  8 26  1  0  0  0  0
  9 27  1  0  0  0  0
 10 28  1  0  0  0  0
 11 29  1  0  0  0  0
 11 30  1  0  0  0  0
 11 31  1  0  0  0  0
 12 32  1  0  0  0  0
 12 33  1  0  0  0  0
 12 34  1  0  0  0  0
M  END
$$$$
