Title Card Required
 OpenBabel03192317533D

102109  0  0  0  0  0  0  0  0999 V2000
    1.0341   -2.6978    3.8104 O   0  0  0  0  0  0  0  0  0  0  0  0
    0.3100   -1.9165    2.9637 C   0  0  0  0  0  0  0  0  0  0  0  0
    0.5126   -1.9796    1.5741 C   0  0  0  0  0  0  0  0  0  0  0  0
    1.3764   -2.8639    1.0126 O   0  0  0  0  0  0  0  0  0  0  0  0
    1.9519   -3.8004    1.8975 C   0  0  0  0  0  0  0  0  0  0  0  0
    2.2426   -3.1488    3.2333 C   0  0  0  0  0  0  0  0  0  0  0  0
   -0.1628   -1.0931    0.7318 C   0  0  0  0  0  0  0  0  0  0  0  0
   -1.1032   -0.1898    1.2585 C   0  0  0  0  0  0  0  0  0  0  0  0
   -1.3429   -0.1845    2.6374 C   0  0  0  0  0  0  0  0  0  0  0  0
   -0.6305   -1.0315    3.4820 C   0  0  0  0  0  0  0  0  0  0  0  0
   -1.0285   -2.7342   -3.7895 O   0  0  0  0  0  0  0  0  0  0  0  0
   -0.3072   -1.9440   -2.9489 C   0  0  0  0  0  0  0  0  0  0  0  0
   -0.5114   -1.9943   -1.5590 C   0  0  0  0  0  0  0  0  0  0  0  0
   -1.3746   -2.8750   -0.9905 O   0  0  0  0  0  0  0  0  0  0  0  0
   -1.9425   -3.8234   -1.8676 C   0  0  0  0  0  0  0  0  0  0  0  0
   -2.2354   -3.1852   -3.2094 C   0  0  0  0  0  0  0  0  0  0  0  0
    0.1622   -1.0994   -0.7242 C   0  0  0  0  0  0  0  0  0  0  0  0
    1.1024   -0.2002   -1.2581 C   0  0  0  0  0  0  0  0  0  0  0  0
    1.3435   -0.2073   -2.6368 C   0  0  0  0  0  0  0  0  0  0  0  0
    0.6329   -1.0627   -3.4742 C   0  0  0  0  0  0  0  0  0  0  0  0
    1.8704    1.0017   -0.0786 P   0  0  0  0  0  0  0  0  0  0  0  0
    3.1964   -0.0271    0.6956 C   0  0  0  0  0  0  0  0  0  0  0  0
    3.7156    0.4278    1.9128 C   0  0  0  0  0  0  0  0  0  0  0  0
    4.7558   -0.2500    2.5565 C   0  0  0  0  0  0  0  0  0  0  0  0
    5.2618   -1.4090    1.9589 C   0  0  0  0  0  0  0  0  0  0  0  0
    4.7484   -1.8993    0.7526 C   0  0  0  0  0  0  0  0  0  0  0  0
    3.7113   -1.1971    0.1292 C   0  0  0  0  0  0  0  0  0  0  0  0
    5.3254   -3.1391    0.1168 C   0  0  0  0  0  0  0  0  0  0  0  0
    5.2868    0.2282    3.8833 C   0  0  0  0  0  0  0  0  0  0  0  0
    2.8453    2.0407   -1.2505 C   0  0  0  0  0  0  0  0  0  0  0  0
    2.1293    3.0426   -1.9256 C   0  0  0  0  0  0  0  0  0  0  0  0
    2.7547    3.8743   -2.8518 C   0  0  0  0  0  0  0  0  0  0  0  0
    4.1288    3.7070   -3.0781 C   0  0  0  0  0  0  0  0  0  0  0  0
    4.8692    2.7362   -2.4058 C   0  0  0  0  0  0  0  0  0  0  0  0
    4.2108    1.8998   -1.4916 C   0  0  0  0  0  0  0  0  0  0  0  0
    6.3490    2.5790   -2.6435 C   0  0  0  0  0  0  0  0  0  0  0  0
    1.9854    4.9325   -3.5994 C   0  0  0  0  0  0  0  0  0  0  0  0
   -1.8726    1.0013    0.0692 P   0  0  0  0  0  0  0  0  0  0  0  0
   -3.1999   -0.0343   -0.6931 C   0  0  0  0  0  0  0  0  0  0  0  0
   -3.7088   -1.2019   -0.1193 C   0  0  0  0  0  0  0  0  0  0  0  0
   -4.7432   -1.9143   -0.7384 C   0  0  0  0  0  0  0  0  0  0  0  0
   -5.2596   -1.4341   -1.9457 C   0  0  0  0  0  0  0  0  0  0  0  0
   -4.7616   -0.2733   -2.5498 C   0  0  0  0  0  0  0  0  0  0  0  0
   -3.7234    0.4115   -1.9135 C   0  0  0  0  0  0  0  0  0  0  0  0
   -5.3254    0.2032   -3.8636 C   0  0  0  0  0  0  0  0  0  0  0  0
   -5.3095   -3.1549   -0.0945 C   0  0  0  0  0  0  0  0  0  0  0  0
   -2.8454    2.0518    1.2326 C   0  0  0  0  0  0  0  0  0  0  0  0
   -2.1283    3.0596    1.8975 C   0  0  0  0  0  0  0  0  0  0  0  0
   -2.7525    3.9003    2.8165 C   0  0  0  0  0  0  0  0  0  0  0  0
   -4.1256    3.7334    3.0485 C   0  0  0  0  0  0  0  0  0  0  0  0
   -4.8671    2.7564    2.3865 C   0  0  0  0  0  0  0  0  0  0  0  0
   -4.2105    1.9126    1.4777 C   0  0  0  0  0  0  0  0  0  0  0  0
   -6.3458    2.5991    2.6307 C   0  0  0  0  0  0  0  0  0  0  0  0
   -1.9861    4.9782    3.5387 C   0  0  0  0  0  0  0  0  0  0  0  0
    2.8754   -4.1624    1.4245 H   0  0  0  0  0  0  0  0  0  0  0  0
    1.2610   -4.6493    2.0422 H   0  0  0  0  0  0  0  0  0  0  0  0
    2.6904   -3.8644    3.9340 H   0  0  0  0  0  0  0  0  0  0  0  0
    2.9329   -2.2988    3.0847 H   0  0  0  0  0  0  0  0  0  0  0  0
   -2.0731    0.5051    3.0628 H   0  0  0  0  0  0  0  0  0  0  0  0
   -0.7754   -1.0164    4.5628 H   0  0  0  0  0  0  0  0  0  0  0  0
   -2.8639   -4.1878   -1.3927 H   0  0  0  0  0  0  0  0  0  0  0  0
   -1.2454   -4.6688   -2.0040 H   0  0  0  0  0  0  0  0  0  0  0  0
   -2.6795   -3.9089   -3.9041 H   0  0  0  0  0  0  0  0  0  0  0  0
   -2.9294   -2.3369   -3.0687 H   0  0  0  0  0  0  0  0  0  0  0  0
    2.0737    0.4789   -3.0677 H   0  0  0  0  0  0  0  0  0  0  0  0
    0.7791   -1.0575   -4.5550 H   0  0  0  0  0  0  0  0  0  0  0  0
    3.2984    1.3311    2.3677 H   0  0  0  0  0  0  0  0  0  0  0  0
    6.0757   -1.9499    2.4519 H   0  0  0  0  0  0  0  0  0  0  0  0
    3.2932   -1.5718   -0.8089 H   0  0  0  0  0  0  0  0  0  0  0  0
    6.1922   -2.8887   -0.5147 H   0  0  0  0  0  0  0  0  0  0  0  0
    5.6706   -3.8564    0.8749 H   0  0  0  0  0  0  0  0  0  0  0  0
    4.5847   -3.6358   -0.5251 H   0  0  0  0  0  0  0  0  0  0  0  0
    4.7787   -0.2854    4.7148 H   0  0  0  0  0  0  0  0  0  0  0  0
    6.3628    0.0278    3.9788 H   0  0  0  0  0  0  0  0  0  0  0  0
    5.1224    1.3061    4.0115 H   0  0  0  0  0  0  0  0  0  0  0  0
    1.0588    3.1605   -1.7285 H   0  0  0  0  0  0  0  0  0  0  0  0
    4.6322    4.3586   -3.7985 H   0  0  0  0  0  0  0  0  0  0  0  0
    4.7804    1.1265   -0.9696 H   0  0  0  0  0  0  0  0  0  0  0  0
    6.6860    3.1947   -3.4878 H   0  0  0  0  0  0  0  0  0  0  0  0
    6.9228    2.8793   -1.7537 H   0  0  0  0  0  0  0  0  0  0  0  0
    6.6045    1.5312   -2.8577 H   0  0  0  0  0  0  0  0  0  0  0  0
    2.4365    5.9252   -3.4543 H   0  0  0  0  0  0  0  0  0  0  0  0
    1.9858    4.7279   -4.6806 H   0  0  0  0  0  0  0  0  0  0  0  0
    0.9416    4.9778   -3.2630 H   0  0  0  0  0  0  0  0  0  0  0  0
   -3.2870   -1.5706    0.8195 H   0  0  0  0  0  0  0  0  0  0  0  0
   -6.0689   -1.9835   -2.4373 H   0  0  0  0  0  0  0  0  0  0  0  0
   -3.3090    1.3120   -2.3760 H   0  0  0  0  0  0  0  0  0  0  0  0
   -5.1589   -0.5410   -4.6571 H   0  0  0  0  0  0  0  0  0  0  0  0
   -6.4106    0.3672   -3.7912 H   0  0  0  0  0  0  0  0  0  0  0  0
   -4.8577    1.1445   -4.1791 H   0  0  0  0  0  0  0  0  0  0  0  0
   -6.1611   -2.9044    0.5573 H   0  0  0  0  0  0  0  0  0  0  0  0
   -5.6730   -3.8687   -0.8473 H   0  0  0  0  0  0  0  0  0  0  0  0
   -4.5561   -3.6557    0.5294 H   0  0  0  0  0  0  0  0  0  0  0  0
   -1.0577    3.1746    1.6991 H   0  0  0  0  0  0  0  0  0  0  0  0
   -4.6272    4.3894    3.7661 H   0  0  0  0  0  0  0  0  0  0  0  0
   -4.7805    1.1336    0.9650 H   0  0  0  0  0  0  0  0  0  0  0  0
   -6.6795    3.2163    3.4753 H   0  0  0  0  0  0  0  0  0  0  0  0
   -6.9233    2.8980    1.7428 H   0  0  0  0  0  0  0  0  0  0  0  0
   -6.6003    1.5517    2.8477 H   0  0  0  0  0  0  0  0  0  0  0  0
   -2.3232    5.9772    3.2232 H   0  0  0  0  0  0  0  0  0  0  0  0
   -2.1379    4.9097    4.6257 H   0  0  0  0  0  0  0  0  0  0  0  0
   -0.9097    4.9046    3.3370 H   0  0  0  0  0  0  0  0  0  0  0  0
  1  2  1  0  0  0  0
  1  6  1  0  0  0  0
  2  3  2  0  0  0  0
  2 10  1  0  0  0  0
  3  4  1  0  0  0  0
  3  7  1  0  0  0  0
  4  5  1  0  0  0  0
  5  6  1  0  0  0  0
  5 55  1  0  0  0  0
  5 56  1  0  0  0  0
  6 57  1  0  0  0  0
  6 58  1  0  0  0  0
  7  8  2  0  0  0  0
  7 17  1  0  0  0  0
  8  9  1  0  0  0  0
  8 38  1  0  0  0  0
  9 10  2  0  0  0  0
  9 59  1  0  0  0  0
 10 60  1  0  0  0  0
 11 12  1  0  0  0  0
 11 16  1  0  0  0  0
 12 13  2  0  0  0  0
 12 20  1  0  0  0  0
 13 14  1  0  0  0  0
 13 17  1  0  0  0  0
 14 15  1  0  0  0  0
 15 16  1  0  0  0  0
 15 61  1  0  0  0  0
 15 62  1  0  0  0  0
 16 63  1  0  0  0  0
 16 64  1  0  0  0  0
 17 18  2  0  0  0  0
 18 19  1  0  0  0  0
 18 21  1  0  0  0  0
 19 20  2  0  0  0  0
 19 65  1  0  0  0  0
 20 66  1  0  0  0  0
 21 22  1  0  0  0  0
 21 30  1  0  0  0  0
 22 23  2  0  0  0  0
 22 27  1  0  0  0  0
 23 24  1  0  0  0  0
 23 67  1  0  0  0  0
 24 25  2  0  0  0  0
 24 29  1  0  0  0  0
 25 26  1  0  0  0  0
 25 68  1  0  0  0  0
 26 27  2  0  0  0  0
 26 28  1  0  0  0  0
 27 69  1  0  0  0  0
 28 70  1  0  0  0  0
 28 71  1  0  0  0  0
 28 72  1  0  0  0  0
 29 73  1  0  0  0  0
 29 74  1  0  0  0  0
 29 75  1  0  0  0  0
 30 31  2  0  0  0  0
 30 35  1  0  0  0  0
 31 32  1  0  0  0  0
 31 76  1  0  0  0  0
 32 33  2  0  0  0  0
 32 37  1  0  0  0  0
 33 34  1  0  0  0  0
 33 77  1  0  0  0  0
 34 35  2  0  0  0  0
 34 36  1  0  0  0  0
 35 78  1  0  0  0  0
 36 79  1  0  0  0  0
 36 80  1  0  0  0  0
 36 81  1  0  0  0  0
 37 82  1  0  0  0  0
 37 83  1  0  0  0  0
 37 84  1  0  0  0  0
 38 39  1  0  0  0  0
 38 47  1  0  0  0  0
 39 40  2  0  0  0  0
 39 44  1  0  0  0  0
 40 41  1  0  0  0  0
 40 85  1  0  0  0  0
 41 42  2  0  0  0  0
 41 46  1  0  0  0  0
 42 43  1  0  0  0  0
 42 86  1  0  0  0  0
 43 44  2  0  0  0  0
 43 45  1  0  0  0  0
 44 87  1  0  0  0  0
 45 88  1  0  0  0  0
 45 89  1  0  0  0  0
 45 90  1  0  0  0  0
 46 91  1  0  0  0  0
 46 92  1  0  0  0  0
 46 93  1  0  0  0  0
 47 48  2  0  0  0  0
 47 52  1  0  0  0  0
 48 49  1  0  0  0  0
 48 94  1  0  0  0  0
 49 50  2  0  0  0  0
 49 54  1  0  0  0  0
 50 51  1  0  0  0  0
 50 95  1  0  0  0  0
 51 52  2  0  0  0  0
 51 53  1  0  0  0  0
 52 96  1  0  0  0  0
 53 97  1  0  0  0  0
 53 98  1  0  0  0  0
 53 99  1  0  0  0  0
 54100  1  0  0  0  0
 54101  1  0  0  0  0
 54102  1  0  0  0  0
M  END
$$$$
