Title Card Required
 OpenBabel03192317473D

154166  0  0  0  0  0  0  0  0999 V2000
   -1.5423    0.0993    0.8838 O   0  0  0  0  0  0  0  0  0  0  0  0
   -0.4356   -0.7116    0.0286 P   0  0  0  0  0  0  0  0  0  0  0  0
    0.6640    0.4346   -0.2582 O   0  0  0  0  0  0  0  0  0  0  0  0
    1.0376    1.3466    0.7111 C   0  0  0  0  0  0  0  0  0  0  0  0
    0.1328    2.2929    1.1628 C   0  0  0  0  0  0  0  0  0  0  0  0
   -1.2121    2.4179    0.5340 C   0  0  0  0  0  0  0  0  0  0  0  0
   -2.0155    1.3053    0.4084 C   0  0  0  0  0  0  0  0  0  0  0  0
    2.3971    1.3023    1.1340 C   0  0  0  0  0  0  0  0  0  0  0  0
    2.7931    2.1948    2.1012 C   0  0  0  0  0  0  0  0  0  0  0  0
    1.8814    3.1010    2.7037 C   0  0  0  0  0  0  0  0  0  0  0  0
    2.2898    3.9571    3.7628 C   0  0  0  0  0  0  0  0  0  0  0  0
    1.3961    4.8067    4.3651 C   0  0  0  0  0  0  0  0  0  0  0  0
    0.0472    4.8296    3.9351 C   0  0  0  0  0  0  0  0  0  0  0  0
   -0.3725    4.0248    2.9034 C   0  0  0  0  0  0  0  0  0  0  0  0
    0.5344    3.1479    2.2453 C   0  0  0  0  0  0  0  0  0  0  0  0
   -3.3237    1.3181   -0.1693 C   0  0  0  0  0  0  0  0  0  0  0  0
   -3.8154    2.5371   -0.5665 C   0  0  0  0  0  0  0  0  0  0  0  0
   -3.0257    3.7191   -0.5072 C   0  0  0  0  0  0  0  0  0  0  0  0
   -3.5300    4.9526   -1.0028 C   0  0  0  0  0  0  0  0  0  0  0  0
   -2.7429    6.0769   -1.0260 C   0  0  0  0  0  0  0  0  0  0  0  0
   -1.4070    6.0103   -0.5641 C   0  0  0  0  0  0  0  0  0  0  0  0
   -0.8962    4.8366   -0.0636 C   0  0  0  0  0  0  0  0  0  0  0  0
   -1.6966    3.6625    0.0024 C   0  0  0  0  0  0  0  0  0  0  0  0
   -3.9602   -0.0251   -0.3698 C   0  0  0  0  0  0  0  0  0  0  0  0
   -4.2972   -0.7992    0.7618 C   0  0  0  0  0  0  0  0  0  0  0  0
   -4.4145   -2.1830    0.6147 C   0  0  0  0  0  0  0  0  0  0  0  0
   -4.2366   -2.8243   -0.6123 C   0  0  0  0  0  0  0  0  0  0  0  0
   -4.0669   -2.0133   -1.7402 C   0  0  0  0  0  0  0  0  0  0  0  0
   -3.9278   -0.6234   -1.6531 C   0  0  0  0  0  0  0  0  0  0  0  0
   -3.6631    0.2212   -2.8920 C   0  0  0  0  0  0  0  0  0  0  0  0
   -4.9505    0.9466   -3.3468 C   0  0  0  0  0  0  0  0  0  0  0  0
   -5.8756    0.0548   -4.1714 C   0  0  0  0  0  0  0  0  0  0  0  0
   -5.1609   -0.4469   -5.4229 C   0  0  0  0  0  0  0  0  0  0  0  0
   -3.9324   -1.2669   -5.0371 C   0  0  0  0  0  0  0  0  0  0  0  0
   -3.0028   -0.4943   -4.0918 C   0  0  0  0  0  0  0  0  0  0  0  0
   -4.2253   -4.3448   -0.7436 C   0  0  0  0  0  0  0  0  0  0  0  0
   -4.0703   -5.0782    0.5990 C   0  0  0  0  0  0  0  0  0  0  0  0
   -2.6793   -4.8888    1.2147 C   0  0  0  0  0  0  0  0  0  0  0  0
   -1.5812   -5.3380    0.2511 C   0  0  0  0  0  0  0  0  0  0  0  0
   -1.7180   -4.6328   -1.0977 C   0  0  0  0  0  0  0  0  0  0  0  0
   -3.1127   -4.8378   -1.6910 C   0  0  0  0  0  0  0  0  0  0  0  0
   -4.4452   -0.1243    2.1210 C   0  0  0  0  0  0  0  0  0  0  0  0
   -4.5855   -1.0737    3.3240 C   0  0  0  0  0  0  0  0  0  0  0  0
   -5.9726   -1.7092    3.4873 C   0  0  0  0  0  0  0  0  0  0  0  0
   -7.0828   -0.6607    3.4525 C   0  0  0  0  0  0  0  0  0  0  0  0
   -6.9755    0.1892    2.1886 C   0  0  0  0  0  0  0  0  0  0  0  0
   -5.6166    0.8817    2.1236 C   0  0  0  0  0  0  0  0  0  0  0  0
    3.3567    0.3616    0.4734 C   0  0  0  0  0  0  0  0  0  0  0  0
    4.1019    0.8059   -0.6380 C   0  0  0  0  0  0  0  0  0  0  0  0
    4.9890   -0.0892   -1.2456 C   0  0  0  0  0  0  0  0  0  0  0  0
    5.1479   -1.4005   -0.8026 C   0  0  0  0  0  0  0  0  0  0  0  0
    4.3738   -1.8151    0.2850 C   0  0  0  0  0  0  0  0  0  0  0  0
    3.4946   -0.9614    0.9506 C   0  0  0  0  0  0  0  0  0  0  0  0
    2.7312   -1.4147    2.1872 C   0  0  0  0  0  0  0  0  0  0  0  0
    3.4452   -0.9606    3.4801 C   0  0  0  0  0  0  0  0  0  0  0  0
    4.6162   -1.8640    3.8581 C   0  0  0  0  0  0  0  0  0  0  0  0
    4.1235   -3.2900    4.0915 C   0  0  0  0  0  0  0  0  0  0  0  0
    3.4820   -3.8464    2.8222 C   0  0  0  0  0  0  0  0  0  0  0  0
    2.3946   -2.9197    2.2587 C   0  0  0  0  0  0  0  0  0  0  0  0
    6.0933   -2.3972   -1.4650 C   0  0  0  0  0  0  0  0  0  0  0  0
    7.0619   -3.0333   -0.4479 C   0  0  0  0  0  0  0  0  0  0  0  0
    8.1370   -2.0497    0.0095 C   0  0  0  0  0  0  0  0  0  0  0  0
    8.9464   -1.5423   -1.1836 C   0  0  0  0  0  0  0  0  0  0  0  0
    8.0337   -0.8902   -2.2219 C   0  0  0  0  0  0  0  0  0  0  0  0
    6.9010   -1.8326   -2.6444 C   0  0  0  0  0  0  0  0  0  0  0  0
    3.9337    2.2237   -1.1725 C   0  0  0  0  0  0  0  0  0  0  0  0
    2.7245    2.3400   -2.1278 C   0  0  0  0  0  0  0  0  0  0  0  0
    3.0442    1.8538   -3.5393 C   0  0  0  0  0  0  0  0  0  0  0  0
    4.1795    2.6781   -4.1411 C   0  0  0  0  0  0  0  0  0  0  0  0
    5.4465    2.5445   -3.2987 C   0  0  0  0  0  0  0  0  0  0  0  0
    5.1915    2.8523   -1.8152 C   0  0  0  0  0  0  0  0  0  0  0  0
   -0.9985   -0.8435   -1.4531 O   0  0  0  0  0  0  0  0  0  0  0  0
   -0.0375   -1.9456    0.7126 O   0  0  0  0  0  0  0  0  0  0  0  0
    3.8378    2.2043    2.4213 H   0  0  0  0  0  0  0  0  0  0  0  0
    3.3291    3.9146    4.0949 H   0  0  0  0  0  0  0  0  0  0  0  0
    1.7173    5.4545    5.1818 H   0  0  0  0  0  0  0  0  0  0  0  0
   -0.6676    5.4875    4.4312 H   0  0  0  0  0  0  0  0  0  0  0  0
   -1.4160    4.0457    2.5886 H   0  0  0  0  0  0  0  0  0  0  0  0
   -4.8229    2.6114   -0.9783 H   0  0  0  0  0  0  0  0  0  0  0  0
   -4.5550    4.9830   -1.3780 H   0  0  0  0  0  0  0  0  0  0  0  0
   -3.1382    7.0170   -1.4134 H   0  0  0  0  0  0  0  0  0  0  0  0
   -0.7738    6.8975   -0.6094 H   0  0  0  0  0  0  0  0  0  0  0  0
    0.1371    4.7971    0.2803 H   0  0  0  0  0  0  0  0  0  0  0  0
   -4.5859   -2.7843    1.5023 H   0  0  0  0  0  0  0  0  0  0  0  0
   -3.9929   -2.4831   -2.7182 H   0  0  0  0  0  0  0  0  0  0  0  0
   -2.9467    0.9933   -2.5775 H   0  0  0  0  0  0  0  0  0  0  0  0
   -5.4898    1.3287   -2.4692 H   0  0  0  0  0  0  0  0  0  0  0  0
   -4.6631    1.8213   -3.9563 H   0  0  0  0  0  0  0  0  0  0  0  0
   -6.1980   -0.8073   -3.5607 H   0  0  0  0  0  0  0  0  0  0  0  0
   -6.7862    0.6113   -4.4398 H   0  0  0  0  0  0  0  0  0  0  0  0
   -5.8380   -1.0471   -6.0489 H   0  0  0  0  0  0  0  0  0  0  0  0
   -4.8509    0.4207   -6.0315 H   0  0  0  0  0  0  0  0  0  0  0  0
   -4.2755   -2.2117   -4.5871 H   0  0  0  0  0  0  0  0  0  0  0  0
   -3.3636   -1.5527   -5.9352 H   0  0  0  0  0  0  0  0  0  0  0  0
   -2.5176    0.2951   -4.6895 H   0  0  0  0  0  0  0  0  0  0  0  0
   -2.1833   -1.1403   -3.7395 H   0  0  0  0  0  0  0  0  0  0  0  0
   -5.1954   -4.6359   -1.1832 H   0  0  0  0  0  0  0  0  0  0  0  0
   -4.8608   -4.7813    1.3046 H   0  0  0  0  0  0  0  0  0  0  0  0
   -4.2283   -6.1532    0.4100 H   0  0  0  0  0  0  0  0  0  0  0  0
   -2.5077   -3.8277    1.4609 H   0  0  0  0  0  0  0  0  0  0  0  0
   -2.6116   -5.4482    2.1601 H   0  0  0  0  0  0  0  0  0  0  0  0
   -0.5913   -5.1340    0.6846 H   0  0  0  0  0  0  0  0  0  0  0  0
   -1.6525   -6.4295    0.0964 H   0  0  0  0  0  0  0  0  0  0  0  0
   -1.5150   -3.5585   -0.9467 H   0  0  0  0  0  0  0  0  0  0  0  0
   -0.9530   -4.9953   -1.8007 H   0  0  0  0  0  0  0  0  0  0  0  0
   -3.2710   -5.9160   -1.8623 H   0  0  0  0  0  0  0  0  0  0  0  0
   -3.1909   -4.3618   -2.6795 H   0  0  0  0  0  0  0  0  0  0  0  0
   -3.5179    0.4469    2.2812 H   0  0  0  0  0  0  0  0  0  0  0  0
   -3.8003   -1.8450    3.2913 H   0  0  0  0  0  0  0  0  0  0  0  0
   -4.3828   -0.4746    4.2274 H   0  0  0  0  0  0  0  0  0  0  0  0
   -6.1651   -2.4392    2.6850 H   0  0  0  0  0  0  0  0  0  0  0  0
   -6.0042   -2.2728    4.4323 H   0  0  0  0  0  0  0  0  0  0  0  0
   -8.0679   -1.1471    3.5163 H   0  0  0  0  0  0  0  0  0  0  0  0
   -6.9966   -0.0021    4.3348 H   0  0  0  0  0  0  0  0  0  0  0  0
   -7.1023   -0.4552    1.3004 H   0  0  0  0  0  0  0  0  0  0  0  0
   -7.7814    0.9378    2.1558 H   0  0  0  0  0  0  0  0  0  0  0  0
   -5.5078    1.5340    3.0074 H   0  0  0  0  0  0  0  0  0  0  0  0
   -5.5564    1.5359    1.2429 H   0  0  0  0  0  0  0  0  0  0  0  0
    5.5666    0.2572   -2.0954 H   0  0  0  0  0  0  0  0  0  0  0  0
    4.4535   -2.8473    0.6190 H   0  0  0  0  0  0  0  0  0  0  0  0
    1.7609   -0.9000    2.1575 H   0  0  0  0  0  0  0  0  0  0  0  0
    3.7767    0.0821    3.3769 H   0  0  0  0  0  0  0  0  0  0  0  0
    2.7104   -0.9781    4.3036 H   0  0  0  0  0  0  0  0  0  0  0  0
    5.3680   -1.8585    3.0482 H   0  0  0  0  0  0  0  0  0  0  0  0
    5.1162   -1.4735    4.7576 H   0  0  0  0  0  0  0  0  0  0  0  0
    4.9458   -3.9431    4.4217 H   0  0  0  0  0  0  0  0  0  0  0  0
    3.3795   -3.2782    4.9075 H   0  0  0  0  0  0  0  0  0  0  0  0
    4.2798   -4.0302    2.0852 H   0  0  0  0  0  0  0  0  0  0  0  0
    3.0342   -4.8322    3.0225 H   0  0  0  0  0  0  0  0  0  0  0  0
    1.5110   -3.0050    2.9124 H   0  0  0  0  0  0  0  0  0  0  0  0
    2.0551   -3.2596    1.2701 H   0  0  0  0  0  0  0  0  0  0  0  0
    5.4528   -3.2049   -1.8590 H   0  0  0  0  0  0  0  0  0  0  0  0
    6.5079   -3.4284    0.4165 H   0  0  0  0  0  0  0  0  0  0  0  0
    7.5492   -3.8989   -0.9291 H   0  0  0  0  0  0  0  0  0  0  0  0
    7.6548   -1.1965    0.5186 H   0  0  0  0  0  0  0  0  0  0  0  0
    8.7982   -2.5283    0.7477 H   0  0  0  0  0  0  0  0  0  0  0  0
    9.7196   -0.8315   -0.8548 H   0  0  0  0  0  0  0  0  0  0  0  0
    9.4750   -2.3945   -1.6463 H   0  0  0  0  0  0  0  0  0  0  0  0
    7.6213    0.0367   -1.7913 H   0  0  0  0  0  0  0  0  0  0  0  0
    8.6142   -0.5917   -3.1087 H   0  0  0  0  0  0  0  0  0  0  0  0
    7.3478   -2.6878   -3.1791 H   0  0  0  0  0  0  0  0  0  0  0  0
    6.2316   -1.3389   -3.3663 H   0  0  0  0  0  0  0  0  0  0  0  0
    3.7024    2.8499   -0.2999 H   0  0  0  0  0  0  0  0  0  0  0  0
    1.8671    1.7875   -1.7210 H   0  0  0  0  0  0  0  0  0  0  0  0
    2.4269    3.4022   -2.1824 H   0  0  0  0  0  0  0  0  0  0  0  0
    3.3341    0.7884   -3.5072 H   0  0  0  0  0  0  0  0  0  0  0  0
    2.1436    1.9154   -4.1685 H   0  0  0  0  0  0  0  0  0  0  0  0
    4.3816    2.3751   -5.1797 H   0  0  0  0  0  0  0  0  0  0  0  0
    3.8702    3.7379   -4.1751 H   0  0  0  0  0  0  0  0  0  0  0  0
    5.8551    1.5312   -3.4374 H   0  0  0  0  0  0  0  0  0  0  0  0
    6.2251    3.2285   -3.6706 H   0  0  0  0  0  0  0  0  0  0  0  0
    5.0692    3.9456   -1.7318 H   0  0  0  0  0  0  0  0  0  0  0  0
    6.0799    2.5961   -1.2157 H   0  0  0  0  0  0  0  0  0  0  0  0
   -1.7401   -1.4735   -1.5103 H   0  0  0  0  0  0  0  0  0  0  0  0
  1  2  1  0  0  0  0
  1  7  1  0  0  0  0
  2  3  1  0  0  0  0
  2 72  1  0  0  0  0
  2 73  2  0  0  0  0
  3  4  1  0  0  0  0
  4  5  2  0  0  0  0
  4  8  1  0  0  0  0
  5  6  1  0  0  0  0
  5 15  1  0  0  0  0
  6  7  2  0  0  0  0
  6 23  1  0  0  0  0
  7 16  1  0  0  0  0
  8  9  2  0  0  0  0
  8 48  1  0  0  0  0
  9 10  1  0  0  0  0
  9 74  1  0  0  0  0
 10 11  2  0  0  0  0
 10 15  1  0  0  0  0
 11 12  1  0  0  0  0
 11 75  1  0  0  0  0
 12 13  2  0  0  0  0
 12 76  1  0  0  0  0
 13 14  1  0  0  0  0
 13 77  1  0  0  0  0
 14 15  2  0  0  0  0
 14 78  1  0  0  0  0
 16 17  2  0  0  0  0
 16 24  1  0  0  0  0
 17 18  1  0  0  0  0
 17 79  1  0  0  0  0
 18 19  2  0  0  0  0
 18 23  1  0  0  0  0
 19 20  1  0  0  0  0
 19 80  1  0  0  0  0
 20 21  2  0  0  0  0
 20 81  1  0  0  0  0
 21 22  1  0  0  0  0
 21 82  1  0  0  0  0
 22 23  2  0  0  0  0
 22 83  1  0  0  0  0
 24 25  2  0  0  0  0
 24 29  1  0  0  0  0
 25 26  1  0  0  0  0
 25 42  1  0  0  0  0
 26 27  2  0  0  0  0
 26 84  1  0  0  0  0
 27 28  1  0  0  0  0
 27 36  1  0  0  0  0
 28 29  2  0  0  0  0
 28 85  1  0  0  0  0
 29 30  1  0  0  0  0
 30 31  1  0  0  0  0
 30 35  1  0  0  0  0
 30 86  1  0  0  0  0
 31 32  1  0  0  0  0
 31 87  1  0  0  0  0
 31 88  1  0  0  0  0
 32 33  1  0  0  0  0
 32 89  1  0  0  0  0
 32 90  1  0  0  0  0
 33 34  1  0  0  0  0
 33 91  1  0  0  0  0
 33 92  1  0  0  0  0
 34 35  1  0  0  0  0
 34 93  1  0  0  0  0
 34 94  1  0  0  0  0
 35 95  1  0  0  0  0
 35 96  1  0  0  0  0
 36 37  1  0  0  0  0
 36 41  1  0  0  0  0
 36 97  1  0  0  0  0
 37 38  1  0  0  0  0
 37 98  1  0  0  0  0
 37 99  1  0  0  0  0
 38 39  1  0  0  0  0
 38100  1  0  0  0  0
 38101  1  0  0  0  0
 39 40  1  0  0  0  0
 39102  1  0  0  0  0
 39103  1  0  0  0  0
 40 41  1  0  0  0  0
 40104  1  0  0  0  0
 40105  1  0  0  0  0
 41106  1  0  0  0  0
 41107  1  0  0  0  0
 42 43  1  0  0  0  0
 42 47  1  0  0  0  0
 42108  1  0  0  0  0
 43 44  1  0  0  0  0
 43109  1  0  0  0  0
 43110  1  0  0  0  0
 44 45  1  0  0  0  0
 44111  1  0  0  0  0
 44112  1  0  0  0  0
 45 46  1  0  0  0  0
 45113  1  0  0  0  0
 45114  1  0  0  0  0
 46 47  1  0  0  0  0
 46115  1  0  0  0  0
 46116  1  0  0  0  0
 47117  1  0  0  0  0
 47118  1  0  0  0  0
 48 49  2  0  0  0  0
 48 53  1  0  0  0  0
 49 50  1  0  0  0  0
 49 66  1  0  0  0  0
 50 51  2  0  0  0  0
 50119  1  0  0  0  0
 51 52  1  0  0  0  0
 51 60  1  0  0  0  0
 52 53  2  0  0  0  0
 52120  1  0  0  0  0
 53 54  1  0  0  0  0
 54 55  1  0  0  0  0
 54 59  1  0  0  0  0
 54121  1  0  0  0  0
 55 56  1  0  0  0  0
 55122  1  0  0  0  0
 55123  1  0  0  0  0
 56 57  1  0  0  0  0
 56124  1  0  0  0  0
 56125  1  0  0  0  0
 57 58  1  0  0  0  0
 57126  1  0  0  0  0
 57127  1  0  0  0  0
 58 59  1  0  0  0  0
 58128  1  0  0  0  0
 58129  1  0  0  0  0
 59130  1  0  0  0  0
 59131  1  0  0  0  0
 60 61  1  0  0  0  0
 60 65  1  0  0  0  0
 60132  1  0  0  0  0
 61 62  1  0  0  0  0
 61133  1  0  0  0  0
 61134  1  0  0  0  0
 62 63  1  0  0  0  0
 62135  1  0  0  0  0
 62136  1  0  0  0  0
 63 64  1  0  0  0  0
 63137  1  0  0  0  0
 63138  1  0  0  0  0
 64 65  1  0  0  0  0
 64139  1  0  0  0  0
 64140  1  0  0  0  0
 65141  1  0  0  0  0
 65142  1  0  0  0  0
 66 67  1  0  0  0  0
 66 71  1  0  0  0  0
 66143  1  0  0  0  0
 67 68  1  0  0  0  0
 67144  1  0  0  0  0
 67145  1  0  0  0  0
 68 69  1  0  0  0  0
 68146  1  0  0  0  0
 68147  1  0  0  0  0
 69 70  1  0  0  0  0
 69148  1  0  0  0  0
 69149  1  0  0  0  0
 70 71  1  0  0  0  0
 70150  1  0  0  0  0
 70151  1  0  0  0  0
 71152  1  0  0  0  0
 71153  1  0  0  0  0
 72154  1  0  0  0  0
M  END
$$$$
