Title Card Required
 OpenBabel03192317433D

 59 62  0  0  1  0  0  0  0  0999 V2000
   -1.8171    2.8083   -0.1732 C   0  0  0  0  0  0  0  0  0  0  0  0
   -0.6513    3.6753    0.3413 C   0  0  0  0  0  0  0  0  0  0  0  0
    0.2197    2.5104    0.1006 C   0  0  0  0  0  0  0  0  0  0  0  0
   -0.7979    1.7430   -0.4617 C   0  0  0  0  0  0  0  0  0  0  0  0
   -3.0033    2.8916   -0.3161 O   0  0  0  0  0  0  0  0  0  0  0  0
   -0.4603    4.7898    0.7384 O   0  0  0  0  0  0  0  0  0  0  0  0
   -0.9298    0.5493   -1.0407 N   0  0  0  0  0  0  0  0  0  0  0  0
   -2.2340   -0.0087   -1.4112 C   0  0  2  0  0  0  0  0  0  0  0  0
   -3.0319   -0.4306   -0.1471 C   0  0  2  0  0  0  0  0  0  0  0  0
   -2.3055   -1.6031    0.5213 C   0  0  0  0  0  0  0  0  0  0  0  0
   -2.0687   -2.7887   -0.4163 C   0  0  0  0  0  0  0  0  0  0  0  0
   -1.3096   -2.3538   -1.6685 C   0  0  0  0  0  0  0  0  0  0  0  0
   -2.0252   -1.1900   -2.3554 C   0  0  0  0  0  0  0  0  0  0  0  0
   -4.4051   -0.7325   -0.5452 N   0  0  0  0  0  0  0  0  0  0  0  0
   -5.2036    0.4632   -0.8346 C   0  0  0  0  0  0  0  0  0  0  0  0
   -5.6902    1.1969    0.4195 C   0  0  0  0  0  0  0  0  0  0  0  0
   -6.4599    0.2528    1.3407 C   0  0  0  0  0  0  0  0  0  0  0  0
   -5.6260   -0.9952    1.6278 C   0  0  0  0  0  0  0  0  0  0  0  0
   -5.1733   -1.6318    0.3107 C   0  0  0  0  0  0  0  0  0  0  0  0
    1.5662    2.4355    0.2820 N   0  0  0  0  0  0  0  0  0  0  0  0
    2.3496    1.2913    0.2764 C   0  0  0  0  0  0  0  0  0  0  0  0
    1.7908    0.0229    0.5119 C   0  0  0  0  0  0  0  0  0  0  0  0
    2.6021   -1.1059    0.4708 C   0  0  0  0  0  0  0  0  0  0  0  0
    3.9737   -1.0116    0.2390 C   0  0  0  0  0  0  0  0  0  0  0  0
    4.5218    0.2525    0.0446 C   0  0  0  0  0  0  0  0  0  0  0  0
    3.7280    1.3947    0.0503 C   0  0  0  0  0  0  0  0  0  0  0  0
    6.0074    0.4184   -0.1593 C   0  0  0  0  0  0  0  0  0  0  0  0
    6.6020   -0.7413   -0.4278 F   0  0  0  0  0  0  0  0  0  0  0  0
    6.2647    1.2543   -1.1663 F   0  0  0  0  0  0  0  0  0  0  0  0
    6.5864    0.9280    0.9285 F   0  0  0  0  0  0  0  0  0  0  0  0
    2.0023   -2.4766    0.6631 C   0  0  0  0  0  0  0  0  0  0  0  0
    0.7623   -2.4152    1.1544 F   0  0  0  0  0  0  0  0  0  0  0  0
    1.9331   -3.1346   -0.4980 F   0  0  0  0  0  0  0  0  0  0  0  0
    2.7326   -3.2175    1.4922 F   0  0  0  0  0  0  0  0  0  0  0  0
   -0.1004    0.0141   -1.2682 H   0  0  0  0  0  0  0  0  0  0  0  0
   -2.7882    0.7818   -1.9337 H   0  0  0  0  0  0  0  0  0  0  0  0
   -2.9966    0.4296    0.5538 H   0  0  0  0  0  0  0  0  0  0  0  0
   -1.3281   -1.2262    0.8616 H   0  0  0  0  0  0  0  0  0  0  0  0
   -2.8334   -1.9151    1.4332 H   0  0  0  0  0  0  0  0  0  0  0  0
   -1.5105   -3.5749    0.1132 H   0  0  0  0  0  0  0  0  0  0  0  0
   -3.0332   -3.2248   -0.7230 H   0  0  0  0  0  0  0  0  0  0  0  0
   -0.2769   -2.0756   -1.3881 H   0  0  0  0  0  0  0  0  0  0  0  0
   -1.2048   -3.1939   -2.3704 H   0  0  0  0  0  0  0  0  0  0  0  0
   -3.0247   -1.5180   -2.6741 H   0  0  0  0  0  0  0  0  0  0  0  0
   -1.4799   -0.8565   -3.2522 H   0  0  0  0  0  0  0  0  0  0  0  0
   -6.0762    0.1420   -1.4301 H   0  0  0  0  0  0  0  0  0  0  0  0
   -4.6267    1.1592   -1.4561 H   0  0  0  0  0  0  0  0  0  0  0  0
   -6.3121    2.0541    0.1201 H   0  0  0  0  0  0  0  0  0  0  0  0
   -4.8234    1.6224    0.9501 H   0  0  0  0  0  0  0  0  0  0  0  0
   -6.7449    0.7610    2.2740 H   0  0  0  0  0  0  0  0  0  0  0  0
   -7.3990   -0.0542    0.8466 H   0  0  0  0  0  0  0  0  0  0  0  0
   -4.7412   -0.7187    2.2280 H   0  0  0  0  0  0  0  0  0  0  0  0
   -6.1986   -1.7260    2.2200 H   0  0  0  0  0  0  0  0  0  0  0  0
   -4.6133   -2.5575    0.4917 H   0  0  0  0  0  0  0  0  0  0  0  0
   -6.0708   -1.9252   -0.2621 H   0  0  0  0  0  0  0  0  0  0  0  0
    2.0192    3.3240    0.4743 H   0  0  0  0  0  0  0  0  0  0  0  0
    0.7339   -0.0732    0.7620 H   0  0  0  0  0  0  0  0  0  0  0  0
    4.6029   -1.9014    0.2213 H   0  0  0  0  0  0  0  0  0  0  0  0
    4.1787    2.3721   -0.1345 H   0  0  0  0  0  0  0  0  0  0  0  0
  1  2  1  0  0  0  0
  1  4  1  0  0  0  0
  1  5  2  0  0  0  0
  2  3  1  0  0  0  0
  2  6  2  0  0  0  0
  3  4  2  0  0  0  0
  3 20  1  0  0  0  0
  4  7  1  0  0  0  0
  7  8  1  0  0  0  0
  7 35  1  0  0  0  0
  8  9  1  0  0  0  0
  8 13  1  0  0  0  0
  8 36  1  6  0  0  0
  9 10  1  0  0  0  0
  9 14  1  0  0  0  0
  9 37  1  1  0  0  0
 10 11  1  0  0  0  0
 10 38  1  0  0  0  0
 10 39  1  0  0  0  0
 11 12  1  0  0  0  0
 11 40  1  0  0  0  0
 11 41  1  0  0  0  0
 12 13  1  0  0  0  0
 12 42  1  0  0  0  0
 12 43  1  0  0  0  0
 13 44  1  0  0  0  0
 13 45  1  0  0  0  0
 14 15  1  0  0  0  0
 14 19  1  0  0  0  0
 15 16  1  0  0  0  0
 15 46  1  0  0  0  0
 15 47  1  0  0  0  0
 16 17  1  0  0  0  0
 16 48  1  0  0  0  0
 16 49  1  0  0  0  0
 17 18  1  0  0  0  0
 17 50  1  0  0  0  0
 17 51  1  0  0  0  0
 18 19  1  0  0  0  0
 18 52  1  0  0  0  0
 18 53  1  0  0  0  0
 19 54  1  0  0  0  0
 19 55  1  0  0  0  0
 20 21  1  0  0  0  0
 20 56  1  0  0  0  0
 21 22  2  0  0  0  0
 21 26  1  0  0  0  0
 22 23  1  0  0  0  0
 22 57  1  0  0  0  0
 23 24  2  0  0  0  0
 23 31  1  0  0  0  0
 24 25  1  0  0  0  0
 24 58  1  0  0  0  0
 25 26  2  0  0  0  0
 25 27  1  0  0  0  0
 26 59  1  0  0  0  0
 27 28  1  0  0  0  0
 27 29  1  0  0  0  0
 27 30  1  0  0  0  0
 31 32  1  0  0  0  0
 31 33  1  0  0  0  0
 31 34  1  0  0  0  0
M  END
$$$$
