Title Card Required
 OpenBabel03192317443D

 30 31  0  0  1  0  0  0  0  0999 V2000
    4.1465    0.9035   -0.1280 C   0  0  0  0  0  0  0  0  0  0  0  0
    3.7652   -0.4087   -0.3805 C   0  0  0  0  0  0  0  0  0  0  0  0
    2.4270   -0.8053   -0.2610 C   0  0  0  0  0  0  0  0  0  0  0  0
    1.4624    0.1421    0.1309 C   0  0  0  0  0  0  0  0  0  0  0  0
    1.8659    1.4620    0.3692 C   0  0  0  0  0  0  0  0  0  0  0  0
    3.1938    1.8512    0.2468 C   0  0  0  0  0  0  0  0  0  0  0  0
    2.0513   -2.0694   -0.5363 O   0  0  0  0  0  0  0  0  0  0  0  0
    0.0250   -0.1670    0.2799 C   0  0  0  0  0  0  0  0  0  0  0  0
   -0.3217   -1.4483    0.5312 O   0  0  0  0  0  0  0  0  0  0  0  0
   -1.7473   -1.4859    0.5189 C   0  0  0  0  0  0  0  0  0  0  0  0
   -2.1578    0.0050    0.5067 C   0  0  1  0  0  0  0  0  0  0  0  0
   -0.9024    0.7016    0.2360 N   0  0  0  0  0  0  0  0  0  0  0  0
   -3.2485    0.3409   -0.5126 C   0  0  0  0  0  0  0  0  0  0  0  0
   -4.5337   -0.4190   -0.1903 C   0  0  0  0  0  0  0  0  0  0  0  0
   -3.4935    1.8450   -0.5703 C   0  0  0  0  0  0  0  0  0  0  0  0
    5.1961    1.1848   -0.2276 H   0  0  0  0  0  0  0  0  0  0  0  0
    4.5090   -1.1498   -0.6847 H   0  0  0  0  0  0  0  0  0  0  0  0
    1.0912    2.1739    0.6559 H   0  0  0  0  0  0  0  0  0  0  0  0
    3.4847    2.8828    0.4440 H   0  0  0  0  0  0  0  0  0  0  0  0
    2.8234   -2.5719   -0.8185 H   0  0  0  0  0  0  0  0  0  0  0  0
   -2.0945   -2.0466    1.3956 H   0  0  0  0  0  0  0  0  0  0  0  0
   -2.0756   -2.0087   -0.3955 H   0  0  0  0  0  0  0  0  0  0  0  0
   -2.5208    0.3248    1.5024 H   0  0  0  0  0  0  0  0  0  0  0  0
   -2.8729    0.0078   -1.4968 H   0  0  0  0  0  0  0  0  0  0  0  0
   -4.9158   -0.1215    0.7995 H   0  0  0  0  0  0  0  0  0  0  0  0
   -5.3159   -0.1982   -0.9306 H   0  0  0  0  0  0  0  0  0  0  0  0
   -4.3827   -1.5091   -0.1812 H   0  0  0  0  0  0  0  0  0  0  0  0
   -2.5616    2.3797   -0.7920 H   0  0  0  0  0  0  0  0  0  0  0  0
   -4.2410    2.0911   -1.3385 H   0  0  0  0  0  0  0  0  0  0  0  0
   -3.8725    2.2088    0.3986 H   0  0  0  0  0  0  0  0  0  0  0  0
  1  2  2  0  0  0  0
  1  6  1  0  0  0  0
  1 16  1  0  0  0  0
  2  3  1  0  0  0  0
  2 17  1  0  0  0  0
  3  4  2  0  0  0  0
  3  7  1  0  0  0  0
  4  5  1  0  0  0  0
  4  8  1  0  0  0  0
  5  6  2  0  0  0  0
  5 18  1  0  0  0  0
  6 19  1  0  0  0  0
  7 20  1  0  0  0  0
  8  9  1  0  0  0  0
  8 12  2  0  0  0  0
  9 10  1  0  0  0  0
 10 11  1  0  0  0  0
 10 21  1  0  0  0  0
 10 22  1  0  0  0  0
 11 12  1  0  0  0  0
 11 13  1  0  0  0  0
 11 23  1  1  0  0  0
 13 14  1  0  0  0  0
 13 15  1  0  0  0  0
 13 24  1  0  0  0  0
 14 25  1  0  0  0  0
 14 26  1  0  0  0  0
 14 27  1  0  0  0  0
 15 28  1  0  0  0  0
 15 29  1  0  0  0  0
 15 30  1  0  0  0  0
M  END
$$$$
