Title Card Required
 OpenBabel03192317563D

 47 50  0  0  1  0  0  0  0  0999 V2000
    1.5965    0.0525   -2.0996 C   0  0  0  0  0  0  0  0  0  0  0  0
    2.8013    0.5051   -1.2257 C   0  0  1  0  0  0  0  0  0  0  0  0
    2.2613    1.6274   -0.4533 N   0  0  0  0  0  0  0  0  0  0  0  0
    1.0125    1.6434   -0.6511 C   0  0  0  0  0  0  0  0  0  0  0  0
    0.4883    0.7464   -1.5236 O   0  0  0  0  0  0  0  0  0  0  0  0
   -0.0001    2.5533   -0.0001 C   0  0  0  0  0  0  0  0  0  0  0  0
   -1.0127    1.6433    0.6509 C   0  0  0  0  0  0  0  0  0  0  0  0
   -2.2615    1.6273    0.4534 N   0  0  0  0  0  0  0  0  0  0  0  0
   -2.8015    0.5049    1.2258 C   0  0  2  0  0  0  0  0  0  0  0  0
   -1.5966    0.0525    2.0996 C   0  0  0  0  0  0  0  0  0  0  0  0
   -0.4884    0.7464    1.5235 O   0  0  0  0  0  0  0  0  0  0  0  0
    3.3066   -0.5953   -0.3130 C   0  0  0  0  0  0  0  0  0  0  0  0
   -3.3066   -0.5955    0.3130 C   0  0  0  0  0  0  0  0  0  0  0  0
   -2.5945   -0.9317   -0.8436 C   0  0  0  0  0  0  0  0  0  0  0  0
   -3.0215   -1.9864   -1.6472 C   0  0  0  0  0  0  0  0  0  0  0  0
   -4.1627   -2.7143   -1.3082 C   0  0  0  0  0  0  0  0  0  0  0  0
   -4.8777   -2.3807   -0.1596 C   0  0  0  0  0  0  0  0  0  0  0  0
   -4.4503   -1.3247    0.6455 C   0  0  0  0  0  0  0  0  0  0  0  0
    4.4502   -1.3245   -0.6457 C   0  0  0  0  0  0  0  0  0  0  0  0
    4.8778   -2.3804    0.1593 C   0  0  0  0  0  0  0  0  0  0  0  0
    4.1632   -2.7139    1.3083 C   0  0  0  0  0  0  0  0  0  0  0  0
    3.0221   -1.9861    1.6475 C   0  0  0  0  0  0  0  0  0  0  0  0
    2.5948   -0.9314    0.8439 C   0  0  0  0  0  0  0  0  0  0  0  0
    0.6855    3.4091    1.0684 C   0  0  0  0  0  0  0  0  0  0  0  0
   -0.6859    3.4092   -1.0685 C   0  0  0  0  0  0  0  0  0  0  0  0
    1.6957    0.3630   -3.1501 H   0  0  0  0  0  0  0  0  0  0  0  0
    1.4069   -1.0272   -2.0498 H   0  0  0  0  0  0  0  0  0  0  0  0
    3.6343    0.8520   -1.8535 H   0  0  0  0  0  0  0  0  0  0  0  0
   -3.6345    0.8519    1.8537 H   0  0  0  0  0  0  0  0  0  0  0  0
   -1.6958    0.3630    3.1501 H   0  0  0  0  0  0  0  0  0  0  0  0
   -1.4069   -1.0272    2.0499 H   0  0  0  0  0  0  0  0  0  0  0  0
   -1.7067   -0.3572   -1.1204 H   0  0  0  0  0  0  0  0  0  0  0  0
   -2.4615   -2.2394   -2.5491 H   0  0  0  0  0  0  0  0  0  0  0  0
   -4.4961   -3.5378   -1.9415 H   0  0  0  0  0  0  0  0  0  0  0  0
   -5.7748   -2.9407    0.1093 H   0  0  0  0  0  0  0  0  0  0  0  0
   -5.0169   -1.0610    1.5421 H   0  0  0  0  0  0  0  0  0  0  0  0
    5.0166   -1.0608   -1.5425 H   0  0  0  0  0  0  0  0  0  0  0  0
    5.7749   -2.9405   -0.1097 H   0  0  0  0  0  0  0  0  0  0  0  0
    4.4969   -3.5374    1.9415 H   0  0  0  0  0  0  0  0  0  0  0  0
    2.4623   -2.2390    2.5496 H   0  0  0  0  0  0  0  0  0  0  0  0
    1.7070   -0.3569    1.1209 H   0  0  0  0  0  0  0  0  0  0  0  0
    1.4774    4.0115    0.6054 H   0  0  0  0  0  0  0  0  0  0  0  0
   -0.0525    4.0751    1.5369 H   0  0  0  0  0  0  0  0  0  0  0  0
    1.1468    2.7735    1.8340 H   0  0  0  0  0  0  0  0  0  0  0  0
    0.0519    4.0756   -1.5366 H   0  0  0  0  0  0  0  0  0  0  0  0
   -1.1468    2.7736   -1.8344 H   0  0  0  0  0  0  0  0  0  0  0  0
   -1.4782    4.0111   -0.6054 H   0  0  0  0  0  0  0  0  0  0  0  0
  1  2  1  0  0  0  0
  1  5  1  0  0  0  0
  1 26  1  0  0  0  0
  1 27  1  0  0  0  0
  2  3  1  0  0  0  0
  2 12  1  0  0  0  0
  2 28  1  6  0  0  0
  3  4  2  0  0  0  0
  4  5  1  0  0  0  0
  4  6  1  0  0  0  0
  6  7  1  0  0  0  0
  6 24  1  0  0  0  0
  6 25  1  0  0  0  0
  7  8  2  0  0  0  0
  7 11  1  0  0  0  0
  8  9  1  0  0  0  0
  9 10  1  0  0  0  0
  9 13  1  0  0  0  0
  9 29  1  1  0  0  0
 10 11  1  0  0  0  0
 10 30  1  0  0  0  0
 10 31  1  0  0  0  0
 12 19  2  0  0  0  0
 12 23  1  0  0  0  0
 13 14  2  0  0  0  0
 13 18  1  0  0  0  0
 14 15  1  0  0  0  0
 14 32  1  0  0  0  0
 15 16  2  0  0  0  0
 15 33  1  0  0  0  0
 16 17  1  0  0  0  0
 16 34  1  0  0  0  0
 17 18  2  0  0  0  0
 17 35  1  0  0  0  0
 18 36  1  0  0  0  0
 19 20  1  0  0  0  0
 19 37  1  0  0  0  0
 20 21  2  0  0  0  0
 20 38  1  0  0  0  0
 21 22  1  0  0  0  0
 21 39  1  0  0  0  0
 22 23  2  0  0  0  0
 22 40  1  0  0  0  0
 23 41  1  0  0  0  0
 24 42  1  0  0  0  0
 24 43  1  0  0  0  0
 24 44  1  0  0  0  0
 25 45  1  0  0  0  0
 25 46  1  0  0  0  0
 25 47  1  0  0  0  0
M  END
$$$$
