Title Card Required
 OpenBabel03192317523D

 52 54  0  0  1  0  0  0  0  0999 V2000
   -0.2317   -0.2779    0.4371 N   0  0  0  0  0  0  0  0  0  0  0  0
   -1.0028   -1.3539    0.0764 C   0  0  0  0  0  0  0  0  0  0  0  0
   -0.4229   -2.7730   -0.5847 S   0  0  0  0  0  0  0  0  0  0  0  0
   -2.3315   -1.1779    0.2590 N   0  0  0  0  0  0  0  0  0  0  0  0
   -3.0374   -0.0430    0.8277 C   0  0  1  0  0  0  0  0  0  0  0  0
   -4.4807    0.0011    0.2673 C   0  0  1  0  0  0  0  0  0  0  0  0
   -5.2679    1.1318    0.9418 C   0  0  0  0  0  0  0  0  0  0  0  0
   -5.2385    1.0609    2.4656 C   0  0  0  0  0  0  0  0  0  0  0  0
   -3.8015    1.0652    2.9806 C   0  0  0  0  0  0  0  0  0  0  0  0
   -3.0175   -0.0870    2.3620 C   0  0  0  0  0  0  0  0  0  0  0  0
   -4.6009    0.0973   -1.1737 N   0  0  0  0  0  0  0  0  0  0  0  0
   -4.4536   -1.0974   -1.9993 C   0  0  0  0  0  0  0  0  0  0  0  0
   -3.1089   -0.9750   -2.7676 C   0  0  0  0  0  0  0  0  0  0  0  0
   -2.6298    0.4633   -2.4841 C   0  0  0  0  0  0  0  0  0  0  0  0
   -3.8648    1.1456   -1.8666 C   0  0  0  0  0  0  0  0  0  0  0  0
    1.1520   -0.0869    0.2746 C   0  0  0  0  0  0  0  0  0  0  0  0
    1.5918    1.2079   -0.0249 C   0  0  0  0  0  0  0  0  0  0  0  0
    2.9498    1.4789   -0.1451 C   0  0  0  0  0  0  0  0  0  0  0  0
    3.8955    0.4683    0.0058 C   0  0  0  0  0  0  0  0  0  0  0  0
    3.4484   -0.8152    0.3039 C   0  0  0  0  0  0  0  0  0  0  0  0
    2.0940   -1.1053    0.4531 C   0  0  0  0  0  0  0  0  0  0  0  0
    4.4444   -1.9385    0.4489 C   0  0  0  0  0  0  0  0  0  0  0  0
    5.6592   -1.4787    0.7537 F   0  0  0  0  0  0  0  0  0  0  0  0
    4.0800   -2.7899    1.4075 F   0  0  0  0  0  0  0  0  0  0  0  0
    4.5578   -2.6383   -0.6796 F   0  0  0  0  0  0  0  0  0  0  0  0
    3.4102    2.8903   -0.3989 C   0  0  0  0  0  0  0  0  0  0  0  0
    2.4608    3.6212   -0.9870 F   0  0  0  0  0  0  0  0  0  0  0  0
    3.7302    3.5076    0.7409 F   0  0  0  0  0  0  0  0  0  0  0  0
    4.4900    2.9190   -1.1785 F   0  0  0  0  0  0  0  0  0  0  0  0
   -0.7318    0.5599    0.7100 H   0  0  0  0  0  0  0  0  0  0  0  0
   -2.8731   -2.0031    0.0258 H   0  0  0  0  0  0  0  0  0  0  0  0
   -2.5540    0.8916    0.4824 H   0  0  0  0  0  0  0  0  0  0  0  0
   -4.9602   -0.9515    0.5607 H   0  0  0  0  0  0  0  0  0  0  0  0
   -4.8453    2.0987    0.6177 H   0  0  0  0  0  0  0  0  0  0  0  0
   -6.2953    1.0948    0.5541 H   0  0  0  0  0  0  0  0  0  0  0  0
   -5.8070    1.8994    2.8934 H   0  0  0  0  0  0  0  0  0  0  0  0
   -5.7393    0.1363    2.8003 H   0  0  0  0  0  0  0  0  0  0  0  0
   -3.3210    2.0236    2.7168 H   0  0  0  0  0  0  0  0  0  0  0  0
   -3.7758    0.9920    4.0774 H   0  0  0  0  0  0  0  0  0  0  0  0
   -3.4628   -1.0478    2.6720 H   0  0  0  0  0  0  0  0  0  0  0  0
   -1.9741   -0.1006    2.7150 H   0  0  0  0  0  0  0  0  0  0  0  0
   -5.2877   -1.1440   -2.7197 H   0  0  0  0  0  0  0  0  0  0  0  0
   -4.5259   -2.0076   -1.3847 H   0  0  0  0  0  0  0  0  0  0  0  0
   -2.3685   -1.7153   -2.4333 H   0  0  0  0  0  0  0  0  0  0  0  0
   -3.2685   -1.1373   -3.8423 H   0  0  0  0  0  0  0  0  0  0  0  0
   -1.7934    0.4559   -1.7683 H   0  0  0  0  0  0  0  0  0  0  0  0
   -2.2779    0.9812   -3.3863 H   0  0  0  0  0  0  0  0  0  0  0  0
   -3.6189    1.9796   -1.1932 H   0  0  0  0  0  0  0  0  0  0  0  0
   -4.4978    1.5628   -2.6693 H   0  0  0  0  0  0  0  0  0  0  0  0
    0.8667    2.0097   -0.1774 H   0  0  0  0  0  0  0  0  0  0  0  0
    4.9599    0.6780   -0.1004 H   0  0  0  0  0  0  0  0  0  0  0  0
    1.7699   -2.1122    0.7061 H   0  0  0  0  0  0  0  0  0  0  0  0
  1  2  1  0  0  0  0
  1 16  1  0  0  0  0
  1 30  1  0  0  0  0
  2  3  2  0  0  0  0
  2  4  1  0  0  0  0
  4  5  1  0  0  0  0
  4 31  1  0  0  0  0
  5  6  1  0  0  0  0
  5 10  1  0  0  0  0
  5 32  1  6  0  0  0
  6  7  1  0  0  0  0
  6 11  1  0  0  0  0
  6 33  1  1  0  0  0
  7  8  1  0  0  0  0
  7 34  1  0  0  0  0
  7 35  1  0  0  0  0
  8  9  1  0  0  0  0
  8 36  1  0  0  0  0
  8 37  1  0  0  0  0
  9 10  1  0  0  0  0
  9 38  1  0  0  0  0
  9 39  1  0  0  0  0
 10 40  1  0  0  0  0
 10 41  1  0  0  0  0
 11 12  1  0  0  0  0
 11 15  1  0  0  0  0
 12 13  1  0  0  0  0
 12 42  1  0  0  0  0
 12 43  1  0  0  0  0
 13 14  1  0  0  0  0
 13 44  1  0  0  0  0
 13 45  1  0  0  0  0
 14 15  1  0  0  0  0
 14 46  1  0  0  0  0
 14 47  1  0  0  0  0
 15 48  1  0  0  0  0
 15 49  1  0  0  0  0
 16 17  2  0  0  0  0
 16 21  1  0  0  0  0
 17 18  1  0  0  0  0
 17 50  1  0  0  0  0
 18 19  2  0  0  0  0
 18 26  1  0  0  0  0
 19 20  1  0  0  0  0
 19 51  1  0  0  0  0
 20 21  2  0  0  0  0
 20 22  1  0  0  0  0
 21 52  1  0  0  0  0
 22 23  1  0  0  0  0
 22 24  1  0  0  0  0
 22 25  1  0  0  0  0
 26 27  1  0  0  0  0
 26 28  1  0  0  0  0
 26 29  1  0  0  0  0
M  END
$$$$
