Title Card Required
 OpenBabel03192317433D

 34 36  0  0  1  0  0  0  0  0999 V2000
    4.8100   -1.4715    0.1277 C   0  0  0  0  0  0  0  0  0  0  0  0
    3.4487   -1.4508   -0.1304 C   0  0  0  0  0  0  0  0  0  0  0  0
    2.7366   -0.2421   -0.1160 C   0  0  0  0  0  0  0  0  0  0  0  0
    3.4038    0.9752    0.1617 C   0  0  0  0  0  0  0  0  0  0  0  0
    4.7837    0.9387    0.4214 C   0  0  0  0  0  0  0  0  0  0  0  0
    5.4695   -0.2659    0.4037 C   0  0  0  0  0  0  0  0  0  0  0  0
    2.7776    2.1468    0.1858 O   0  0  0  0  0  0  0  0  0  0  0  0
    1.3016   -0.2142   -0.3829 C   0  0  0  0  0  0  0  0  0  0  0  0
    0.5814    0.8447   -0.4087 N   0  0  0  0  0  0  0  0  0  0  0  0
   -0.8040    0.4325   -0.6178 C   0  0  1  0  0  0  0  0  0  0  0  0
   -0.6726   -1.0692   -0.9621 C   0  0  0  0  0  0  0  0  0  0  0  0
    0.6794   -1.3843   -0.6098 O   0  0  0  0  0  0  0  0  0  0  0  0
   -1.6403    0.7070    0.6417 C   0  0  0  0  0  0  0  0  0  0  0  0
   -3.0924    0.3454    0.4563 C   0  0  0  0  0  0  0  0  0  0  0  0
   -3.6365   -0.8017    1.0431 C   0  0  0  0  0  0  0  0  0  0  0  0
   -4.9707   -1.1507    0.8312 C   0  0  0  0  0  0  0  0  0  0  0  0
   -5.7815   -0.3543    0.0255 C   0  0  0  0  0  0  0  0  0  0  0  0
   -5.2515    0.7941   -0.5643 C   0  0  0  0  0  0  0  0  0  0  0  0
   -3.9194    1.1385   -0.3500 C   0  0  0  0  0  0  0  0  0  0  0  0
    5.3604   -2.4120    0.1160 H   0  0  0  0  0  0  0  0  0  0  0  0
    2.9024   -2.3689   -0.3497 H   0  0  0  0  0  0  0  0  0  0  0  0
    5.2858    1.8828    0.6329 H   0  0  0  0  0  0  0  0  0  0  0  0
    6.5419   -0.2701    0.6076 H   0  0  0  0  0  0  0  0  0  0  0  0
    1.8200    1.9954   -0.0217 H   0  0  0  0  0  0  0  0  0  0  0  0
   -1.2391    0.9945   -1.4580 H   0  0  0  0  0  0  0  0  0  0  0  0
   -1.3491   -1.7121   -0.3837 H   0  0  0  0  0  0  0  0  0  0  0  0
   -0.8095   -1.2743   -2.0332 H   0  0  0  0  0  0  0  0  0  0  0  0
   -1.2059    0.1368    1.4778 H   0  0  0  0  0  0  0  0  0  0  0  0
   -1.5358    1.7743    0.8874 H   0  0  0  0  0  0  0  0  0  0  0  0
   -3.0081   -1.4254    1.6841 H   0  0  0  0  0  0  0  0  0  0  0  0
   -5.3783   -2.0476    1.3005 H   0  0  0  0  0  0  0  0  0  0  0  0
   -6.8256   -0.6236   -0.1403 H   0  0  0  0  0  0  0  0  0  0  0  0
   -5.8818    1.4269   -1.1914 H   0  0  0  0  0  0  0  0  0  0  0  0
   -3.5129    2.0445   -0.8073 H   0  0  0  0  0  0  0  0  0  0  0  0
  1  2  2  0  0  0  0
  1  6  1  0  0  0  0
  1 20  1  0  0  0  0
  2  3  1  0  0  0  0
  2 21  1  0  0  0  0
  3  4  2  0  0  0  0
  3  8  1  0  0  0  0
  4  5  1  0  0  0  0
  4  7  1  0  0  0  0
  5  6  2  0  0  0  0
  5 22  1  0  0  0  0
  6 23  1  0  0  0  0
  7 24  1  0  0  0  0
  8  9  2  0  0  0  0
  8 12  1  0  0  0  0
  9 10  1  0  0  0  0
 10 11  1  0  0  0  0
 10 13  1  0  0  0  0
 10 25  1  6  0  0  0
 11 12  1  0  0  0  0
 11 26  1  0  0  0  0
 11 27  1  0  0  0  0
 13 14  1  0  0  0  0
 13 28  1  0  0  0  0
 13 29  1  0  0  0  0
 14 15  2  0  0  0  0
 14 19  1  0  0  0  0
 15 16  1  0  0  0  0
 15 30  1  0  0  0  0
 16 17  2  0  0  0  0
 16 31  1  0  0  0  0
 17 18  1  0  0  0  0
 17 32  1  0  0  0  0
 18 19  2  0  0  0  0
 18 33  1  0  0  0  0
 19 34  1  0  0  0  0
M  END
$$$$
