Title Card Required
 OpenBabel03192317563D

 45 47  0  0  1  0  0  0  0  0999 V2000
    0.0410    2.7958    2.2558 C   0  0  0  0  0  0  0  0  0  0  0  0
    0.6569    1.7125    0.0401 C   0  0  1  0  0  0  0  0  0  0  0  0
    0.4167    1.5041    1.5364 C   0  0  0  0  0  0  0  0  0  0  0  0
    2.6633   -0.0101   -0.2539 C   0  0  1  0  0  0  0  0  0  0  0  0
    3.1513    1.4538   -0.0938 C   0  0  0  0  0  0  0  0  0  0  0  0
    1.9738    2.4396   -0.2741 C   0  0  0  0  0  0  0  0  0  0  0  0
    0.9321    0.1422   -0.9611 P   0  0  1  0  0  0  0  0  0  0  0  0
    4.9599   -1.0892   -0.4721 C   0  0  0  0  0  0  0  0  0  0  0  0
    3.5871   -0.8826   -1.1045 C   0  0  0  0  0  0  0  0  0  0  0  0
   -1.4275   -1.1584   -0.0900 C   0  0  0  0  0  0  0  0  0  0  0  0
   -0.0185   -1.1670   -0.0672 C   0  0  0  0  0  0  0  0  0  0  0  0
   -2.1841   -0.0339   -0.7510 C   0  0  0  0  0  0  0  0  0  0  0  0
   -3.6276    1.6431   -0.1419 C   0  0  0  0  0  0  0  0  0  0  0  0
   -4.1950    0.7627   -1.2690 C   0  0  0  0  0  0  0  0  0  0  0  0
   -2.3770    1.0490    0.1455 O   0  0  0  0  0  0  0  0  0  0  0  0
   -3.4665   -0.4323   -1.1300 O   0  0  0  0  0  0  0  0  0  0  0  0
    0.6216   -2.2426    0.5649 C   0  0  0  0  0  0  0  0  0  0  0  0
   -0.1069   -3.2628    1.1735 C   0  0  0  0  0  0  0  0  0  0  0  0
   -1.4988   -3.2281    1.1654 C   0  0  0  0  0  0  0  0  0  0  0  0
   -2.1532   -2.1746    0.5329 C   0  0  0  0  0  0  0  0  0  0  0  0
    0.8190    3.5677    2.1580 H   0  0  0  0  0  0  0  0  0  0  0  0
   -0.1189    2.6205    3.3292 H   0  0  0  0  0  0  0  0  0  0  0  0
   -0.8932    3.2018    1.8389 H   0  0  0  0  0  0  0  0  0  0  0  0
   -0.1987    2.2584   -0.3848 H   0  0  0  0  0  0  0  0  0  0  0  0
    1.3169    1.0612    1.9973 H   0  0  0  0  0  0  0  0  0  0  0  0
   -0.3972    0.7780    1.6724 H   0  0  0  0  0  0  0  0  0  0  0  0
    2.5782   -0.4573    0.7497 H   0  0  0  0  0  0  0  0  0  0  0  0
    3.9378    1.6706   -0.8330 H   0  0  0  0  0  0  0  0  0  0  0  0
    3.6147    1.5813    0.8956 H   0  0  0  0  0  0  0  0  0  0  0  0
    1.9457    2.7883   -1.3180 H   0  0  0  0  0  0  0  0  0  0  0  0
    2.0961    3.3352    0.3532 H   0  0  0  0  0  0  0  0  0  0  0  0
    4.8691   -1.5790    0.5098 H   0  0  0  0  0  0  0  0  0  0  0  0
    5.6033   -1.7178   -1.1037 H   0  0  0  0  0  0  0  0  0  0  0  0
    5.4764   -0.1301   -0.3172 H   0  0  0  0  0  0  0  0  0  0  0  0
    3.1117   -1.8626   -1.2793 H   0  0  0  0  0  0  0  0  0  0  0  0
    3.6906   -0.4184   -2.1000 H   0  0  0  0  0  0  0  0  0  0  0  0
   -1.6293    0.3352   -1.6410 H   0  0  0  0  0  0  0  0  0  0  0  0
   -4.2542    1.6171    0.7623 H   0  0  0  0  0  0  0  0  0  0  0  0
   -3.5014    2.6912   -0.4551 H   0  0  0  0  0  0  0  0  0  0  0  0
   -5.2647    0.5440   -1.1681 H   0  0  0  0  0  0  0  0  0  0  0  0
   -4.0104    1.2157   -2.2595 H   0  0  0  0  0  0  0  0  0  0  0  0
    1.7109   -2.2973    0.5809 H   0  0  0  0  0  0  0  0  0  0  0  0
    0.4196   -4.0879    1.6563 H   0  0  0  0  0  0  0  0  0  0  0  0
   -2.0735   -4.0224    1.6440 H   0  0  0  0  0  0  0  0  0  0  0  0
   -3.2418   -2.1335    0.4959 H   0  0  0  0  0  0  0  0  0  0  0  0
  1  3  1  0  0  0  0
  1 21  1  0  0  0  0
  1 22  1  0  0  0  0
  1 23  1  0  0  0  0
  2  3  1  0  0  0  0
  2  6  1  0  0  0  0
  2  7  1  0  0  0  0
  2 24  1  6  0  0  0
  3 25  1  0  0  0  0
  3 26  1  0  0  0  0
  4  5  1  0  0  0  0
  4  7  1  0  0  0  0
  4  9  1  0  0  0  0
  4 27  1  1  0  0  0
  5  6  1  0  0  0  0
  5 28  1  0  0  0  0
  5 29  1  0  0  0  0
  6 30  1  0  0  0  0
  6 31  1  0  0  0  0
  7 11  1  1  0  0  0
  8  9  1  0  0  0  0
  8 32  1  0  0  0  0
  8 33  1  0  0  0  0
  8 34  1  0  0  0  0
  9 35  1  0  0  0  0
  9 36  1  0  0  0  0
 10 11  2  0  0  0  0
 10 12  1  0  0  0  0
 10 20  1  0  0  0  0
 11 17  1  0  0  0  0
 12 15  1  0  0  0  0
 12 16  1  0  0  0  0
 12 37  1  0  0  0  0
 13 14  1  0  0  0  0
 13 15  1  0  0  0  0
 13 38  1  0  0  0  0
 13 39  1  0  0  0  0
 14 16  1  0  0  0  0
 14 40  1  0  0  0  0
 14 41  1  0  0  0  0
 17 18  2  0  0  0  0
 17 42  1  0  0  0  0
 18 19  1  0  0  0  0
 18 43  1  0  0  0  0
 19 20  2  0  0  0  0
 19 44  1  0  0  0  0
 20 45  1  0  0  0  0
M  END
$$$$
