Title Card Required
 OpenBabel03192317563D

 52 54  0  0  1  0  0  0  0  0999 V2000
   -1.1895    1.8343   -0.1983 C   0  0  0  0  0  0  0  0  0  0  0  0
   -1.1894    0.4355   -0.1987 C   0  0  0  0  0  0  0  0  0  0  0  0
    0.0005   -0.2680    0.0010 C   0  0  0  0  0  0  0  0  0  0  0  0
    1.1903    0.4353    0.2013 C   0  0  0  0  0  0  0  0  0  0  0  0
    1.1903    1.8342    0.2024 C   0  0  0  0  0  0  0  0  0  0  0  0
    0.0004    2.5291    0.0024 C   0  0  0  0  0  0  0  0  0  0  0  0
   -2.4601   -0.2834   -0.4129 C   0  0  0  0  0  0  0  0  0  0  0  0
    2.4610   -0.2838    0.4148 C   0  0  0  0  0  0  0  0  0  0  0  0
   -2.3850   -1.6352   -0.4079 O   0  0  0  0  0  0  0  0  0  0  0  0
   -3.7060   -2.1190   -0.6557 C   0  0  0  0  0  0  0  0  0  0  0  0
   -4.5667   -0.8317   -0.7396 C   0  0  2  0  0  0  0  0  0  0  0  0
   -3.5950    0.2517   -0.6004 N   0  0  0  0  0  0  0  0  0  0  0  0
    3.5958    0.2513    0.6033 N   0  0  0  0  0  0  0  0  0  0  0  0
    4.5677   -0.8323    0.7400 C   0  0  1  0  0  0  0  0  0  0  0  0
    3.7068   -2.1195    0.6569 C   0  0  0  0  0  0  0  0  0  0  0  0
    2.3861   -1.6356    0.4075 O   0  0  0  0  0  0  0  0  0  0  0  0
   -5.6478   -0.7478    0.3362 C   0  0  0  0  0  0  0  0  0  0  0  0
    5.6466   -0.7477   -0.3381 C   0  0  0  0  0  0  0  0  0  0  0  0
   -6.3454    0.6121    0.4304 C   0  0  0  0  0  0  0  0  0  0  0  0
    6.3436    0.6124   -0.4331 C   0  0  0  0  0  0  0  0  0  0  0  0
    6.8796    1.0796    0.9185 C   0  0  0  0  0  0  0  0  0  0  0  0
    7.4553    0.5592   -1.4782 C   0  0  0  0  0  0  0  0  0  0  0  0
   -6.8789    1.0797   -0.9220 C   0  0  0  0  0  0  0  0  0  0  0  0
   -7.4592    0.5581    1.4734 C   0  0  0  0  0  0  0  0  0  0  0  0
   -2.1353    2.3535   -0.3583 H   0  0  0  0  0  0  0  0  0  0  0  0
    0.0005   -1.3574    0.0004 H   0  0  0  0  0  0  0  0  0  0  0  0
    2.1362    2.3532    0.3628 H   0  0  0  0  0  0  0  0  0  0  0  0
    0.0004    3.6197    0.0029 H   0  0  0  0  0  0  0  0  0  0  0  0
   -4.0028   -2.7759    0.1754 H   0  0  0  0  0  0  0  0  0  0  0  0
   -3.6981   -2.7016   -1.5870 H   0  0  0  0  0  0  0  0  0  0  0  0
   -5.0443   -0.7472   -1.7287 H   0  0  0  0  0  0  0  0  0  0  0  0
    5.0474   -0.7486    1.7282 H   0  0  0  0  0  0  0  0  0  0  0  0
    4.0039   -2.7775   -0.1731 H   0  0  0  0  0  0  0  0  0  0  0  0
    3.6980   -2.7009    1.5890 H   0  0  0  0  0  0  0  0  0  0  0  0
   -6.3989   -1.5350    0.1397 H   0  0  0  0  0  0  0  0  0  0  0  0
   -5.1876   -0.9842    1.3115 H   0  0  0  0  0  0  0  0  0  0  0  0
    6.3982   -1.5347   -0.1435 H   0  0  0  0  0  0  0  0  0  0  0  0
    5.1843   -0.9837   -1.3125 H   0  0  0  0  0  0  0  0  0  0  0  0
   -5.5864    1.3394    0.7606 H   0  0  0  0  0  0  0  0  0  0  0  0
    5.5837    1.3397   -0.7615 H   0  0  0  0  0  0  0  0  0  0  0  0
    7.5556    0.3254    1.3556 H   0  0  0  0  0  0  0  0  0  0  0  0
    7.4492    2.0140    0.8086 H   0  0  0  0  0  0  0  0  0  0  0  0
    6.0622    1.2687    1.6284 H   0  0  0  0  0  0  0  0  0  0  0  0
    7.0750    0.2181   -2.4527 H   0  0  0  0  0  0  0  0  0  0  0  0
    7.9148    1.5482   -1.6206 H   0  0  0  0  0  0  0  0  0  0  0  0
    8.2497   -0.1376   -1.1648 H   0  0  0  0  0  0  0  0  0  0  0  0
   -7.5538    0.3254   -1.3608 H   0  0  0  0  0  0  0  0  0  0  0  0
   -7.4492    2.0138   -0.8128 H   0  0  0  0  0  0  0  0  0  0  0  0
   -6.0602    1.2696   -1.6302 H   0  0  0  0  0  0  0  0  0  0  0  0
   -7.0806    0.2168    2.4485 H   0  0  0  0  0  0  0  0  0  0  0  0
   -7.9191    1.5470    1.6152 H   0  0  0  0  0  0  0  0  0  0  0  0
   -8.2527   -0.1388    1.1581 H   0  0  0  0  0  0  0  0  0  0  0  0
  1  2  2  0  0  0  0
  1  6  1  0  0  0  0
  1 25  1  0  0  0  0
  2  3  1  0  0  0  0
  2  7  1  0  0  0  0
  3  4  2  0  0  0  0
  3 26  1  0  0  0  0
  4  5  1  0  0  0  0
  4  8  1  0  0  0  0
  5  6  2  0  0  0  0
  5 27  1  0  0  0  0
  6 28  1  0  0  0  0
  7  9  1  0  0  0  0
  7 12  2  0  0  0  0
  8 13  2  0  0  0  0
  8 16  1  0  0  0  0
  9 10  1  0  0  0  0
 10 11  1  0  0  0  0
 10 29  1  0  0  0  0
 10 30  1  0  0  0  0
 11 12  1  0  0  0  0
 11 17  1  0  0  0  0
 11 31  1  6  0  0  0
 13 14  1  0  0  0  0
 14 15  1  0  0  0  0
 14 18  1  0  0  0  0
 14 32  1  1  0  0  0
 15 16  1  0  0  0  0
 15 33  1  0  0  0  0
 15 34  1  0  0  0  0
 17 19  1  0  0  0  0
 17 35  1  0  0  0  0
 17 36  1  0  0  0  0
 18 20  1  0  0  0  0
 18 37  1  0  0  0  0
 18 38  1  0  0  0  0
 19 23  1  0  0  0  0
 19 24  1  0  0  0  0
 19 39  1  0  0  0  0
 20 21  1  0  0  0  0
 20 22  1  0  0  0  0
 20 40  1  0  0  0  0
 21 41  1  0  0  0  0
 21 42  1  0  0  0  0
 21 43  1  0  0  0  0
 22 44  1  0  0  0  0
 22 45  1  0  0  0  0
 22 46  1  0  0  0  0
 23 47  1  0  0  0  0
 23 48  1  0  0  0  0
 23 49  1  0  0  0  0
 24 50  1  0  0  0  0
 24 51  1  0  0  0  0
 24 52  1  0  0  0  0
M  END
$$$$
