Title Card Required
 OpenBabel03192317563D

 70 72  0  0  1  0  0  0  0  0999 V2000
    0.6458    1.4007    0.7491 N   0  0  0  0  0  0  0  0  0  0  0  0
   -0.6126    1.9797    1.1668 C   0  0  2  0  0  0  0  0  0  0  0  0
   -1.4992    2.1785   -0.0867 C   0  0  1  0  0  0  0  0  0  0  0  0
   -2.8282    2.5364    0.3667 N   0  0  0  0  0  0  0  0  0  0  0  0
   -3.8061    1.7316    0.2872 C   0  0  0  0  0  0  0  0  0  0  0  0
   -3.8815    0.3331   -0.2177 C   0  0  0  0  0  0  0  0  0  0  0  0
   -5.0051   -0.0240   -0.9805 C   0  0  0  0  0  0  0  0  0  0  0  0
   -5.9545    0.8675   -1.3477 O   0  0  0  0  0  0  0  0  0  0  0  0
   -5.1703   -1.3487   -1.3939 C   0  0  0  0  0  0  0  0  0  0  0  0
   -4.2217   -2.3023   -1.0619 C   0  0  0  0  0  0  0  0  0  0  0  0
   -3.0786   -1.9833   -0.3076 C   0  0  0  0  0  0  0  0  0  0  0  0
   -2.0580   -3.0769    0.0225 C   0  0  0  0  0  0  0  0  0  0  0  0
   -1.5326   -3.6909   -1.2856 C   0  0  0  0  0  0  0  0  0  0  0  0
   -0.8643   -2.5280    0.8059 C   0  0  0  0  0  0  0  0  0  0  0  0
   -2.7366   -4.1691    0.8645 C   0  0  0  0  0  0  0  0  0  0  0  0
   -2.9399   -0.6597    0.1064 C   0  0  0  0  0  0  0  0  0  0  0  0
   -0.9450    3.2950   -0.9804 C   0  0  0  0  0  0  0  0  0  0  0  0
   -0.7319    4.6022   -0.2207 C   0  0  0  0  0  0  0  0  0  0  0  0
    0.1874    4.3849    0.9802 C   0  0  0  0  0  0  0  0  0  0  0  0
   -0.3815    3.3073    1.9004 C   0  0  0  0  0  0  0  0  0  0  0  0
    1.0292    0.3492    1.3453 C   0  0  0  0  0  0  0  0  0  0  0  0
    2.2851   -0.3485    1.0098 C   0  0  0  0  0  0  0  0  0  0  0  0
    3.1400    0.1335    0.0168 C   0  0  0  0  0  0  0  0  0  0  0  0
    4.3371   -0.5045   -0.3227 C   0  0  0  0  0  0  0  0  0  0  0  0
    4.6577   -1.6727    0.3800 C   0  0  0  0  0  0  0  0  0  0  0  0
    3.8205   -2.1787    1.3731 C   0  0  0  0  0  0  0  0  0  0  0  0
    2.6329   -1.5251    1.6952 C   0  0  0  0  0  0  0  0  0  0  0  0
    1.7881   -1.9828    2.6519 O   0  0  0  0  0  0  0  0  0  0  0  0
    5.2238    0.0818   -1.4252 C   0  0  0  0  0  0  0  0  0  0  0  0
    5.6102    1.5230   -1.0561 C   0  0  0  0  0  0  0  0  0  0  0  0
    6.5071   -0.7299   -1.6175 C   0  0  0  0  0  0  0  0  0  0  0  0
    4.4447    0.0856   -2.7502 C   0  0  0  0  0  0  0  0  0  0  0  0
   -1.1472    1.2943    1.8568 H   0  0  0  0  0  0  0  0  0  0  0  0
   -1.4875    1.2363   -0.6611 H   0  0  0  0  0  0  0  0  0  0  0  0
   -4.7728    2.1285    0.6487 H   0  0  0  0  0  0  0  0  0  0  0  0
   -5.6652    1.7654   -1.1517 H   0  0  0  0  0  0  0  0  0  0  0  0
   -6.0504   -1.6002   -1.9863 H   0  0  0  0  0  0  0  0  0  0  0  0
   -4.3741   -3.3281   -1.4044 H   0  0  0  0  0  0  0  0  0  0  0  0
   -1.0426   -2.9247   -1.9041 H   0  0  0  0  0  0  0  0  0  0  0  0
   -0.7976   -4.4806   -1.0663 H   0  0  0  0  0  0  0  0  0  0  0  0
   -2.3422   -4.1408   -1.8782 H   0  0  0  0  0  0  0  0  0  0  0  0
   -1.1688   -2.0989    1.7725 H   0  0  0  0  0  0  0  0  0  0  0  0
   -0.1497   -3.3367    1.0177 H   0  0  0  0  0  0  0  0  0  0  0  0
   -0.3278   -1.7539    0.2352 H   0  0  0  0  0  0  0  0  0  0  0  0
   -3.1126   -3.7533    1.8110 H   0  0  0  0  0  0  0  0  0  0  0  0
   -3.5861   -4.6224    0.3329 H   0  0  0  0  0  0  0  0  0  0  0  0
   -2.0183   -4.9702    1.0979 H   0  0  0  0  0  0  0  0  0  0  0  0
   -2.0879   -0.3702    0.7212 H   0  0  0  0  0  0  0  0  0  0  0  0
    0.0140    2.9405   -1.3892 H   0  0  0  0  0  0  0  0  0  0  0  0
   -1.6327    3.4407   -1.8274 H   0  0  0  0  0  0  0  0  0  0  0  0
   -0.3128    5.3633   -0.8961 H   0  0  0  0  0  0  0  0  0  0  0  0
   -1.7071    4.9764    0.1293 H   0  0  0  0  0  0  0  0  0  0  0  0
    1.1847    4.0734    0.6299 H   0  0  0  0  0  0  0  0  0  0  0  0
    0.3186    5.3228    1.5405 H   0  0  0  0  0  0  0  0  0  0  0  0
   -1.3521    3.6389    2.3007 H   0  0  0  0  0  0  0  0  0  0  0  0
    0.2878    3.1220    2.7546 H   0  0  0  0  0  0  0  0  0  0  0  0
    0.4294   -0.1084    2.1530 H   0  0  0  0  0  0  0  0  0  0  0  0
    2.8242    1.0488   -0.4888 H   0  0  0  0  0  0  0  0  0  0  0  0
    5.5780   -2.2140    0.1616 H   0  0  0  0  0  0  0  0  0  0  0  0
    4.0940   -3.0928    1.9065 H   0  0  0  0  0  0  0  0  0  0  0  0
    2.1447   -2.7885    3.0417 H   0  0  0  0  0  0  0  0  0  0  0  0
    6.1667    1.5468   -0.1074 H   0  0  0  0  0  0  0  0  0  0  0  0
    6.2454    1.9600   -1.8420 H   0  0  0  0  0  0  0  0  0  0  0  0
    4.7231    2.1628   -0.9451 H   0  0  0  0  0  0  0  0  0  0  0  0
    6.2904   -1.7664   -1.9165 H   0  0  0  0  0  0  0  0  0  0  0  0
    7.1170   -0.2736   -2.4107 H   0  0  0  0  0  0  0  0  0  0  0  0
    7.1126   -0.7524   -0.6990 H   0  0  0  0  0  0  0  0  0  0  0  0
    4.1589   -0.9376   -3.0358 H   0  0  0  0  0  0  0  0  0  0  0  0
    3.5261    0.6853   -2.6748 H   0  0  0  0  0  0  0  0  0  0  0  0
    5.0629    0.5113   -3.5557 H   0  0  0  0  0  0  0  0  0  0  0  0
  1  2  1  0  0  0  0
  1 21  2  0  0  0  0
  2  3  1  0  0  0  0
  2 20  1  0  0  0  0
  2 33  1  1  0  0  0
  3  4  1  0  0  0  0
  3 17  1  0  0  0  0
  3 34  1  6  0  0  0
  4  5  2  0  0  0  0
  5  6  1  0  0  0  0
  5 35  1  0  0  0  0
  6  7  2  0  0  0  0
  6 16  1  0  0  0  0
  7  8  1  0  0  0  0
  7  9  1  0  0  0  0
  8 36  1  0  0  0  0
  9 10  2  0  0  0  0
  9 37  1  0  0  0  0
 10 11  1  0  0  0  0
 10 38  1  0  0  0  0
 11 12  1  0  0  0  0
 11 16  2  0  0  0  0
 12 13  1  0  0  0  0
 12 14  1  0  0  0  0
 12 15  1  0  0  0  0
 13 39  1  0  0  0  0
 13 40  1  0  0  0  0
 13 41  1  0  0  0  0
 14 42  1  0  0  0  0
 14 43  1  0  0  0  0
 14 44  1  0  0  0  0
 15 45  1  0  0  0  0
 15 46  1  0  0  0  0
 15 47  1  0  0  0  0
 16 48  1  0  0  0  0
 17 18  1  0  0  0  0
 17 49  1  0  0  0  0
 17 50  1  0  0  0  0
 18 19  1  0  0  0  0
 18 51  1  0  0  0  0
 18 52  1  0  0  0  0
 19 20  1  0  0  0  0
 19 53  1  0  0  0  0
 19 54  1  0  0  0  0
 20 55  1  0  0  0  0
 20 56  1  0  0  0  0
 21 22  1  0  0  0  0
 21 57  1  0  0  0  0
 22 23  2  0  0  0  0
 22 27  1  0  0  0  0
 23 24  1  0  0  0  0
 23 58  1  0  0  0  0
 24 25  2  0  0  0  0
 24 29  1  0  0  0  0
 25 26  1  0  0  0  0
 25 59  1  0  0  0  0
 26 27  2  0  0  0  0
 26 60  1  0  0  0  0
 27 28  1  0  0  0  0
 28 61  1  0  0  0  0
 29 30  1  0  0  0  0
 29 31  1  0  0  0  0
 29 32  1  0  0  0  0
 30 62  1  0  0  0  0
 30 63  1  0  0  0  0
 30 64  1  0  0  0  0
 31 65  1  0  0  0  0
 31 66  1  0  0  0  0
 31 67  1  0  0  0  0
 32 68  1  0  0  0  0
 32 69  1  0  0  0  0
 32 70  1  0  0  0  0
M  END
$$$$
