Title Card Required
 OpenBabel03192317453D

 33 36  0  0  1  0  0  0  0  0999 V2000
   -0.4278    1.1822   -0.2553 C   0  0  0  0  0  0  0  0  0  0  0  0
    0.6737    1.7789   -0.4388 N   0  0  0  0  0  0  0  0  0  0  0  0
    1.7128    1.0384   -1.1306 C   0  0  2  0  0  0  0  0  0  0  0  0
    1.1145    0.0427   -2.1410 C   0  0  0  0  0  0  0  0  0  0  0  0
    0.1415   -0.8961   -1.4390 C   0  0  0  0  0  0  0  0  0  0  0  0
   -0.7836   -0.1009   -0.6479 N   0  0  0  0  0  0  0  0  0  0  0  0
   -1.7913    1.9389    0.6104 S   0  0  0  0  0  0  0  0  0  0  0  0
   -2.0489   -0.5149   -0.2640 C   0  0  0  0  0  0  0  0  0  0  0  0
   -2.7563    0.4797    0.4366 C   0  0  0  0  0  0  0  0  0  0  0  0
   -4.0458    0.2459    0.8932 C   0  0  0  0  0  0  0  0  0  0  0  0
   -4.6338   -0.9990    0.6503 C   0  0  0  0  0  0  0  0  0  0  0  0
   -3.9302   -1.9880   -0.0353 C   0  0  0  0  0  0  0  0  0  0  0  0
   -2.6319   -1.7597   -0.4969 C   0  0  0  0  0  0  0  0  0  0  0  0
    2.6501    0.3233   -0.1638 C   0  0  0  0  0  0  0  0  0  0  0  0
    2.3174    0.1065    1.1747 C   0  0  0  0  0  0  0  0  0  0  0  0
    3.1830   -0.5997    2.0129 C   0  0  0  0  0  0  0  0  0  0  0  0
    4.3921   -1.0893    1.5260 C   0  0  0  0  0  0  0  0  0  0  0  0
    4.7385   -0.8652    0.1925 C   0  0  0  0  0  0  0  0  0  0  0  0
    3.8734   -0.1637   -0.6418 C   0  0  0  0  0  0  0  0  0  0  0  0
    2.3200    1.7692   -1.6879 H   0  0  0  0  0  0  0  0  0  0  0  0
    0.5807    0.6094   -2.9195 H   0  0  0  0  0  0  0  0  0  0  0  0
    1.9046   -0.5436   -2.6295 H   0  0  0  0  0  0  0  0  0  0  0  0
   -0.4373   -1.4757   -2.1732 H   0  0  0  0  0  0  0  0  0  0  0  0
    0.6833   -1.6050   -0.7891 H   0  0  0  0  0  0  0  0  0  0  0  0
   -4.5887    1.0234    1.4326 H   0  0  0  0  0  0  0  0  0  0  0  0
   -5.6466   -1.1940    1.0036 H   0  0  0  0  0  0  0  0  0  0  0  0
   -4.3946   -2.9589   -0.2128 H   0  0  0  0  0  0  0  0  0  0  0  0
   -2.0825   -2.5416   -1.0219 H   0  0  0  0  0  0  0  0  0  0  0  0
    1.3807    0.5056    1.5668 H   0  0  0  0  0  0  0  0  0  0  0  0
    2.9098   -0.7616    3.0571 H   0  0  0  0  0  0  0  0  0  0  0  0
    5.0676   -1.6389    2.1835 H   0  0  0  0  0  0  0  0  0  0  0  0
    5.6891   -1.2347   -0.1961 H   0  0  0  0  0  0  0  0  0  0  0  0
    4.1533    0.0174   -1.6835 H   0  0  0  0  0  0  0  0  0  0  0  0
  1  2  2  0  0  0  0
  1  6  1  0  0  0  0
  1  7  1  0  0  0  0
  2  3  1  0  0  0  0
  3  4  1  0  0  0  0
  3 14  1  0  0  0  0
  3 20  1  6  0  0  0
  4  5  1  0  0  0  0
  4 21  1  0  0  0  0
  4 22  1  0  0  0  0
  5  6  1  0  0  0  0
  5 23  1  0  0  0  0
  5 24  1  0  0  0  0
  6  8  1  0  0  0  0
  7  9  1  0  0  0  0
  8  9  2  0  0  0  0
  8 13  1  0  0  0  0
  9 10  1  0  0  0  0
 10 11  2  0  0  0  0
 10 25  1  0  0  0  0
 11 12  1  0  0  0  0
 11 26  1  0  0  0  0
 12 13  2  0  0  0  0
 12 27  1  0  0  0  0
 13 28  1  0  0  0  0
 14 15  2  0  0  0  0
 14 19  1  0  0  0  0
 15 16  1  0  0  0  0
 15 29  1  0  0  0  0
 16 17  2  0  0  0  0
 16 30  1  0  0  0  0
 17 18  1  0  0  0  0
 17 31  1  0  0  0  0
 18 19  2  0  0  0  0
 18 32  1  0  0  0  0
 19 33  1  0  0  0  0
M  END
$$$$
