Title Card Required
 OpenBabel03192317483D

 45 46  0  0  1  0  0  0  0  0999 V2000
    1.7790    1.2915    0.3658 C   0  0  0  0  0  0  0  0  0  0  0  0
    2.7082    0.4871   -0.5788 C   0  0  2  0  0  0  0  0  0  0  0  0
    1.9923   -0.7768   -0.7689 N   0  0  0  0  0  0  0  0  0  0  0  0
    1.0083   -0.7646    0.0246 C   0  0  0  0  0  0  0  0  0  0  0  0
    0.8214    0.3264    0.8029 O   0  0  0  0  0  0  0  0  0  0  0  0
    0.0167   -1.8612    0.2279 C   0  0  0  0  0  0  0  0  0  0  0  0
   -1.3691   -1.4083   -0.1114 C   0  0  0  0  0  0  0  0  0  0  0  0
   -1.6785   -0.4268   -0.8455 N   0  0  0  0  0  0  0  0  0  0  0  0
   -3.1353   -0.2933   -0.7787 C   0  0  1  0  0  0  0  0  0  0  0  0
   -3.5795   -1.6030   -0.0828 C   0  0  0  0  0  0  0  0  0  0  0  0
   -2.3630   -2.1313    0.4525 O   0  0  0  0  0  0  0  0  0  0  0  0
    4.1442    0.2472   -0.0547 C   0  0  0  0  0  0  0  0  0  0  0  0
   -3.5243    1.0101   -0.0372 C   0  0  0  0  0  0  0  0  0  0  0  0
   -2.9400    2.1962   -0.8095 C   0  0  0  0  0  0  0  0  0  0  0  0
   -5.0502    1.1319   -0.0005 C   0  0  0  0  0  0  0  0  0  0  0  0
    4.1080   -0.4949    1.2839 C   0  0  0  0  0  0  0  0  0  0  0  0
    4.8986   -0.5972   -1.0858 C   0  0  0  0  0  0  0  0  0  0  0  0
    4.8511    1.5960    0.1082 C   0  0  0  0  0  0  0  0  0  0  0  0
   -2.9559    1.0011    1.3856 C   0  0  0  0  0  0  0  0  0  0  0  0
    2.2832    1.7091    1.2472 H   0  0  0  0  0  0  0  0  0  0  0  0
    1.2455    2.0977   -0.1579 H   0  0  0  0  0  0  0  0  0  0  0  0
    2.7981    0.9917   -1.5545 H   0  0  0  0  0  0  0  0  0  0  0  0
    0.3015   -2.7163   -0.3984 H   0  0  0  0  0  0  0  0  0  0  0  0
    0.0226   -2.1829    1.2797 H   0  0  0  0  0  0  0  0  0  0  0  0
   -3.5464   -0.2308   -1.7990 H   0  0  0  0  0  0  0  0  0  0  0  0
   -4.2909   -1.4591    0.7405 H   0  0  0  0  0  0  0  0  0  0  0  0
   -3.9956   -2.3342   -0.7915 H   0  0  0  0  0  0  0  0  0  0  0  0
   -3.3437    2.2353   -1.8333 H   0  0  0  0  0  0  0  0  0  0  0  0
   -3.1923    3.1423   -0.3069 H   0  0  0  0  0  0  0  0  0  0  0  0
   -1.8476    2.1068   -0.8762 H   0  0  0  0  0  0  0  0  0  0  0  0
   -5.5181    0.3199    0.5768 H   0  0  0  0  0  0  0  0  0  0  0  0
   -5.3434    2.0813    0.4720 H   0  0  0  0  0  0  0  0  0  0  0  0
   -5.4729    1.1168   -1.0174 H   0  0  0  0  0  0  0  0  0  0  0  0
    3.6431   -1.4843    1.1646 H   0  0  0  0  0  0  0  0  0  0  0  0
    5.1294   -0.6418    1.6662 H   0  0  0  0  0  0  0  0  0  0  0  0
    3.5437    0.0612    2.0489 H   0  0  0  0  0  0  0  0  0  0  0  0
    4.9597   -0.0715   -2.0515 H   0  0  0  0  0  0  0  0  0  0  0  0
    5.9246   -0.7977   -0.7418 H   0  0  0  0  0  0  0  0  0  0  0  0
    4.3834   -1.5526   -1.2511 H   0  0  0  0  0  0  0  0  0  0  0  0
    4.8601    2.1544   -0.8409 H   0  0  0  0  0  0  0  0  0  0  0  0
    4.3710    2.2269    0.8718 H   0  0  0  0  0  0  0  0  0  0  0  0
    5.8957    1.4421    0.4180 H   0  0  0  0  0  0  0  0  0  0  0  0
   -3.3211    0.1403    1.9681 H   0  0  0  0  0  0  0  0  0  0  0  0
   -1.8566    0.9608    1.3647 H   0  0  0  0  0  0  0  0  0  0  0  0
   -3.2568    1.9148    1.9201 H   0  0  0  0  0  0  0  0  0  0  0  0
  1  2  1  0  0  0  0
  1  5  1  0  0  0  0
  1 20  1  0  0  0  0
  1 21  1  0  0  0  0
  2  3  1  0  0  0  0
  2 12  1  0  0  0  0
  2 22  1  6  0  0  0
  3  4  2  0  0  0  0
  4  5  1  0  0  0  0
  4  6  1  0  0  0  0
  6  7  1  0  0  0  0
  6 23  1  0  0  0  0
  6 24  1  0  0  0  0
  7  8  2  0  0  0  0
  7 11  1  0  0  0  0
  8  9  1  0  0  0  0
  9 10  1  0  0  0  0
  9 13  1  0  0  0  0
  9 25  1  6  0  0  0
 10 11  1  0  0  0  0
 10 26  1  0  0  0  0
 10 27  1  0  0  0  0
 12 16  1  0  0  0  0
 12 17  1  0  0  0  0
 12 18  1  0  0  0  0
 13 14  1  0  0  0  0
 13 15  1  0  0  0  0
 13 19  1  0  0  0  0
 14 28  1  0  0  0  0
 14 29  1  0  0  0  0
 14 30  1  0  0  0  0
 15 31  1  0  0  0  0
 15 32  1  0  0  0  0
 15 33  1  0  0  0  0
 16 34  1  0  0  0  0
 16 35  1  0  0  0  0
 16 36  1  0  0  0  0
 17 37  1  0  0  0  0
 17 38  1  0  0  0  0
 17 39  1  0  0  0  0
 18 40  1  0  0  0  0
 18 41  1  0  0  0  0
 18 42  1  0  0  0  0
 19 43  1  0  0  0  0
 19 44  1  0  0  0  0
 19 45  1  0  0  0  0
M  END
$$$$
