Title Card Required
 OpenBabel03192317423D

 39 40  0  0  1  0  0  0  0  0999 V2000
   -2.4111   -0.5950   -1.4607 C   0  0  0  0  0  0  0  0  0  0  0  0
   -3.0310   -0.3624   -0.0616 C   0  0  1  0  0  0  0  0  0  0  0  0
   -2.0279   -0.9113    0.8543 N   0  0  0  0  0  0  0  0  0  0  0  0
   -1.1490   -1.4690    0.1371 C   0  0  0  0  0  0  0  0  0  0  0  0
   -1.3120   -1.4682   -1.2045 O   0  0  0  0  0  0  0  0  0  0  0  0
    0.0888   -2.1481    0.6178 C   0  0  0  0  0  0  0  0  0  0  0  0
    1.3081   -1.3665    0.2370 C   0  0  0  0  0  0  0  0  0  0  0  0
    1.3385   -0.1773   -0.1902 N   0  0  0  0  0  0  0  0  0  0  0  0
    2.7437    0.1569   -0.4263 C   0  0  2  0  0  0  0  0  0  0  0  0
    3.5095   -1.0830    0.1005 C   0  0  0  0  0  0  0  0  0  0  0  0
    2.4772   -2.0295    0.3877 O   0  0  0  0  0  0  0  0  0  0  0  0
   -3.3424    1.1055    0.2385 C   0  0  0  0  0  0  0  0  0  0  0  0
    3.1516    1.4699    0.2468 C   0  0  0  0  0  0  0  0  0  0  0  0
    4.6203    1.7808   -0.0343 C   0  0  0  0  0  0  0  0  0  0  0  0
    2.2473    2.6136   -0.2011 C   0  0  0  0  0  0  0  0  0  0  0  0
   -4.3653    1.6500   -0.7568 C   0  0  0  0  0  0  0  0  0  0  0  0
   -3.8226    1.2756    1.6759 C   0  0  0  0  0  0  0  0  0  0  0  0
   -3.0853   -1.0695   -2.1844 H   0  0  0  0  0  0  0  0  0  0  0  0
   -2.0151    0.3408   -1.8891 H   0  0  0  0  0  0  0  0  0  0  0  0
   -3.9666   -0.9395    0.0637 H   0  0  0  0  0  0  0  0  0  0  0  0
    0.0428   -2.2477    1.7099 H   0  0  0  0  0  0  0  0  0  0  0  0
    0.1698   -3.1531    0.1784 H   0  0  0  0  0  0  0  0  0  0  0  0
    2.8871    0.2792   -1.5158 H   0  0  0  0  0  0  0  0  0  0  0  0
    4.2053   -1.5247   -0.6239 H   0  0  0  0  0  0  0  0  0  0  0  0
    4.0531   -0.8660    1.0345 H   0  0  0  0  0  0  0  0  0  0  0  0
   -2.3923    1.6560    0.1169 H   0  0  0  0  0  0  0  0  0  0  0  0
    3.0187    1.3225    1.3339 H   0  0  0  0  0  0  0  0  0  0  0  0
    4.7827    1.9184   -1.1155 H   0  0  0  0  0  0  0  0  0  0  0  0
    4.9271    2.7078    0.4706 H   0  0  0  0  0  0  0  0  0  0  0  0
    5.2907    0.9782    0.3088 H   0  0  0  0  0  0  0  0  0  0  0  0
    1.1949    2.3759   -0.0014 H   0  0  0  0  0  0  0  0  0  0  0  0
    2.5096    3.5460    0.3193 H   0  0  0  0  0  0  0  0  0  0  0  0
    2.3580    2.7876   -1.2836 H   0  0  0  0  0  0  0  0  0  0  0  0
   -5.3148    1.0970   -0.6720 H   0  0  0  0  0  0  0  0  0  0  0  0
   -4.5775    2.7103   -0.5590 H   0  0  0  0  0  0  0  0  0  0  0  0
   -4.0182    1.5691   -1.7981 H   0  0  0  0  0  0  0  0  0  0  0  0
   -3.0866    0.8676    2.3797 H   0  0  0  0  0  0  0  0  0  0  0  0
   -3.9928    2.3368    1.9088 H   0  0  0  0  0  0  0  0  0  0  0  0
   -4.7739    0.7403    1.8286 H   0  0  0  0  0  0  0  0  0  0  0  0
  1  2  1  0  0  0  0
  1  5  1  0  0  0  0
  1 18  1  0  0  0  0
  1 19  1  0  0  0  0
  2  3  1  0  0  0  0
  2 12  1  0  0  0  0
  2 20  1  1  0  0  0
  3  4  2  0  0  0  0
  4  5  1  0  0  0  0
  4  6  1  0  0  0  0
  6  7  1  0  0  0  0
  6 21  1  0  0  0  0
  6 22  1  0  0  0  0
  7  8  2  0  0  0  0
  7 11  1  0  0  0  0
  8  9  1  0  0  0  0
  9 10  1  0  0  0  0
  9 13  1  0  0  0  0
  9 23  1  6  0  0  0
 10 11  1  0  0  0  0
 10 24  1  0  0  0  0
 10 25  1  0  0  0  0
 12 16  1  0  0  0  0
 12 17  1  0  0  0  0
 12 26  1  0  0  0  0
 13 14  1  0  0  0  0
 13 15  1  0  0  0  0
 13 27  1  0  0  0  0
 14 28  1  0  0  0  0
 14 29  1  0  0  0  0
 14 30  1  0  0  0  0
 15 31  1  0  0  0  0
 15 32  1  0  0  0  0
 15 33  1  0  0  0  0
 16 34  1  0  0  0  0
 16 35  1  0  0  0  0
 16 36  1  0  0  0  0
 17 37  1  0  0  0  0
 17 38  1  0  0  0  0
 17 39  1  0  0  0  0
M  END
$$$$
