Title Card Required
 OpenBabel03192317543D

 47 50  0  0  1  0  0  0  0  0999 V2000
    0.4789    3.3678    1.6150 C   0  0  0  0  0  0  0  0  0  0  0  0
   -0.5447    2.8532    0.5748 C   0  0  1  0  0  0  0  0  0  0  0  0
    0.2921    2.5202   -0.5855 N   0  0  0  0  0  0  0  0  0  0  0  0
    1.4884    2.5352   -0.1766 C   0  0  0  0  0  0  0  0  0  0  0  0
    1.7378    2.9557    1.0811 O   0  0  0  0  0  0  0  0  0  0  0  0
    2.6827    2.0353   -0.9167 C   0  0  0  0  0  0  0  0  0  0  0  0
    2.9732    0.6321   -0.4757 C   0  0  0  0  0  0  0  0  0  0  0  0
    2.1897   -0.1198    0.1739 N   0  0  0  0  0  0  0  0  0  0  0  0
    2.8423   -1.4265    0.2664 C   0  0  2  0  0  0  0  0  0  0  0  0
    4.2734   -1.1552   -0.2575 C   0  0  0  0  0  0  0  0  0  0  0  0
    4.1764    0.1444   -0.8489 O   0  0  0  0  0  0  0  0  0  0  0  0
    2.0960   -2.4648   -0.5833 C   0  0  0  0  0  0  0  0  0  0  0  0
   -1.2830    1.6031    1.0713 C   0  0  0  0  0  0  0  0  0  0  0  0
    0.6854   -2.7384   -0.1266 C   0  0  0  0  0  0  0  0  0  0  0  0
   -2.4528    1.1446    0.2331 C   0  0  0  0  0  0  0  0  0  0  0  0
   -0.3719   -1.9047   -0.5121 C   0  0  0  0  0  0  0  0  0  0  0  0
   -1.6757   -2.1751   -0.1006 C   0  0  0  0  0  0  0  0  0  0  0  0
   -1.9365   -3.2708    0.7233 C   0  0  0  0  0  0  0  0  0  0  0  0
   -0.8900   -4.0967    1.1286 C   0  0  0  0  0  0  0  0  0  0  0  0
    0.4106   -3.8325    0.7002 C   0  0  0  0  0  0  0  0  0  0  0  0
   -2.4148    1.1510   -1.1682 C   0  0  0  0  0  0  0  0  0  0  0  0
   -3.4921    0.6632   -1.9076 C   0  0  0  0  0  0  0  0  0  0  0  0
   -4.6249    0.1635   -1.2654 C   0  0  0  0  0  0  0  0  0  0  0  0
   -4.6783    0.1652    0.1280 C   0  0  0  0  0  0  0  0  0  0  0  0
   -3.6021    0.6552    0.8658 C   0  0  0  0  0  0  0  0  0  0  0  0
    0.4794    4.4641    1.7099 H   0  0  0  0  0  0  0  0  0  0  0  0
    0.3531    2.9172    2.6083 H   0  0  0  0  0  0  0  0  0  0  0  0
   -1.2765    3.6291    0.3035 H   0  0  0  0  0  0  0  0  0  0  0  0
    2.4719    2.0349   -1.9943 H   0  0  0  0  0  0  0  0  0  0  0  0
    3.5616    2.6643   -0.7228 H   0  0  0  0  0  0  0  0  0  0  0  0
    2.8464   -1.7613    1.3145 H   0  0  0  0  0  0  0  0  0  0  0  0
    5.0247   -1.1178    0.5448 H   0  0  0  0  0  0  0  0  0  0  0  0
    4.5991   -1.8699   -1.0256 H   0  0  0  0  0  0  0  0  0  0  0  0
    2.0944   -2.1055   -1.6258 H   0  0  0  0  0  0  0  0  0  0  0  0
    2.6767   -3.4006   -0.5640 H   0  0  0  0  0  0  0  0  0  0  0  0
   -0.5361    0.7903    1.1458 H   0  0  0  0  0  0  0  0  0  0  0  0
   -1.6453    1.8002    2.0927 H   0  0  0  0  0  0  0  0  0  0  0  0
   -0.1670   -1.0306   -1.1360 H   0  0  0  0  0  0  0  0  0  0  0  0
   -2.4920   -1.5289   -0.4275 H   0  0  0  0  0  0  0  0  0  0  0  0
   -2.9585   -3.4798    1.0441 H   0  0  0  0  0  0  0  0  0  0  0  0
   -1.0868   -4.9565    1.7715 H   0  0  0  0  0  0  0  0  0  0  0  0
    1.2266   -4.4932    1.0047 H   0  0  0  0  0  0  0  0  0  0  0  0
   -1.5257    1.5334   -1.6712 H   0  0  0  0  0  0  0  0  0  0  0  0
   -3.4435    0.6703   -2.9979 H   0  0  0  0  0  0  0  0  0  0  0  0
   -5.4637   -0.2207   -1.8480 H   0  0  0  0  0  0  0  0  0  0  0  0
   -5.5615   -0.2164    0.6433 H   0  0  0  0  0  0  0  0  0  0  0  0
   -3.6477    0.6466    1.9574 H   0  0  0  0  0  0  0  0  0  0  0  0
  1  2  1  0  0  0  0
  1  5  1  0  0  0  0
  1 26  1  0  0  0  0
  1 27  1  0  0  0  0
  2  3  1  0  0  0  0
  2 13  1  0  0  0  0
  2 28  1  6  0  0  0
  3  4  2  0  0  0  0
  4  5  1  0  0  0  0
  4  6  1  0  0  0  0
  6  7  1  0  0  0  0
  6 29  1  0  0  0  0
  6 30  1  0  0  0  0
  7  8  2  0  0  0  0
  7 11  1  0  0  0  0
  8  9  1  0  0  0  0
  9 10  1  0  0  0  0
  9 12  1  0  0  0  0
  9 31  1  1  0  0  0
 10 11  1  0  0  0  0
 10 32  1  0  0  0  0
 10 33  1  0  0  0  0
 12 14  1  0  0  0  0
 12 34  1  0  0  0  0
 12 35  1  0  0  0  0
 13 15  1  0  0  0  0
 13 36  1  0  0  0  0
 13 37  1  0  0  0  0
 14 16  2  0  0  0  0
 14 20  1  0  0  0  0
 15 21  2  0  0  0  0
 15 25  1  0  0  0  0
 16 17  1  0  0  0  0
 16 38  1  0  0  0  0
 17 18  2  0  0  0  0
 17 39  1  0  0  0  0
 18 19  1  0  0  0  0
 18 40  1  0  0  0  0
 19 20  2  0  0  0  0
 19 41  1  0  0  0  0
 20 42  1  0  0  0  0
 21 22  1  0  0  0  0
 21 43  1  0  0  0  0
 22 23  2  0  0  0  0
 22 44  1  0  0  0  0
 23 24  1  0  0  0  0
 23 45  1  0  0  0  0
 24 25  2  0  0  0  0
 24 46  1  0  0  0  0
 25 47  1  0  0  0  0
M  END
$$$$
