Title Card Required
 OpenBabel03192317513D

 45 46  0  0  1  0  0  0  0  0999 V2000
   -2.7986    1.1547    1.2165 C   0  0  0  0  0  0  0  0  0  0  0  0
   -3.0769    0.4913   -0.1589 C   0  0  1  0  0  0  0  0  0  0  0  0
   -1.9934    0.9853   -1.0106 N   0  0  0  0  0  0  0  0  0  0  0  0
   -1.2294    1.6712   -0.2723 C   0  0  0  0  0  0  0  0  0  0  0  0
   -1.5707    1.8574    1.0193 O   0  0  0  0  0  0  0  0  0  0  0  0
    0.0534    2.3085   -0.6895 C   0  0  0  0  0  0  0  0  0  0  0  0
    1.2353    1.5602   -0.1566 C   0  0  0  0  0  0  0  0  0  0  0  0
    1.2208    0.4688    0.4818 N   0  0  0  0  0  0  0  0  0  0  0  0
    2.6155    0.0878    0.7129 C   0  0  2  0  0  0  0  0  0  0  0  0
    3.4224    1.2921    0.1584 C   0  0  0  0  0  0  0  0  0  0  0  0
    2.4279    2.1301   -0.4356 O   0  0  0  0  0  0  0  0  0  0  0  0
   -3.1176   -1.0550   -0.1480 C   0  0  0  0  0  0  0  0  0  0  0  0
    2.9386   -1.2798    0.0657 C   0  0  0  0  0  0  0  0  0  0  0  0
    2.6351   -1.2447   -1.4344 C   0  0  0  0  0  0  0  0  0  0  0  0
    4.4154   -1.6106    0.3019 C   0  0  0  0  0  0  0  0  0  0  0  0
   -4.2462   -1.5208    0.7763 C   0  0  0  0  0  0  0  0  0  0  0  0
   -3.4007   -1.5354   -1.5744 C   0  0  0  0  0  0  0  0  0  0  0  0
   -1.7732   -1.6165    0.3208 C   0  0  0  0  0  0  0  0  0  0  0  0
    2.0690   -2.3458    0.7383 C   0  0  0  0  0  0  0  0  0  0  0  0
   -3.5730    1.8765    1.5112 H   0  0  0  0  0  0  0  0  0  0  0  0
   -2.6592    0.4320    2.0322 H   0  0  0  0  0  0  0  0  0  0  0  0
   -4.0393    0.8384   -0.5716 H   0  0  0  0  0  0  0  0  0  0  0  0
    0.1068    2.3197   -1.7858 H   0  0  0  0  0  0  0  0  0  0  0  0
    0.1031    3.3457   -0.3273 H   0  0  0  0  0  0  0  0  0  0  0  0
    2.7784   -0.0211    1.7981 H   0  0  0  0  0  0  0  0  0  0  0  0
    3.9363    1.8611    0.9455 H   0  0  0  0  0  0  0  0  0  0  0  0
    4.1532    1.0179   -0.6146 H   0  0  0  0  0  0  0  0  0  0  0  0
    3.2002   -0.4529   -1.9515 H   0  0  0  0  0  0  0  0  0  0  0  0
    2.9066   -2.2036   -1.9004 H   0  0  0  0  0  0  0  0  0  0  0  0
    1.5635   -1.0696   -1.6086 H   0  0  0  0  0  0  0  0  0  0  0  0
    4.6546   -1.6025    1.3770 H   0  0  0  0  0  0  0  0  0  0  0  0
    4.6447   -2.6143   -0.0861 H   0  0  0  0  0  0  0  0  0  0  0  0
    5.0873   -0.9011   -0.2046 H   0  0  0  0  0  0  0  0  0  0  0  0
   -5.2144   -1.1004    0.4608 H   0  0  0  0  0  0  0  0  0  0  0  0
   -4.3311   -2.6175    0.7491 H   0  0  0  0  0  0  0  0  0  0  0  0
   -4.0700   -1.2305    1.8234 H   0  0  0  0  0  0  0  0  0  0  0  0
   -2.6273   -1.1693   -2.2626 H   0  0  0  0  0  0  0  0  0  0  0  0
   -3.4214   -2.6351   -1.6131 H   0  0  0  0  0  0  0  0  0  0  0  0
   -4.3758   -1.1642   -1.9275 H   0  0  0  0  0  0  0  0  0  0  0  0
   -0.9640   -1.2788   -0.3423 H   0  0  0  0  0  0  0  0  0  0  0  0
   -1.5157   -1.2874    1.3399 H   0  0  0  0  0  0  0  0  0  0  0  0
   -1.7983   -2.7170    0.3187 H   0  0  0  0  0  0  0  0  0  0  0  0
    2.3014   -2.4191    1.8122 H   0  0  0  0  0  0  0  0  0  0  0  0
    1.0048   -2.0957    0.6354 H   0  0  0  0  0  0  0  0  0  0  0  0
    2.2478   -3.3319    0.2833 H   0  0  0  0  0  0  0  0  0  0  0  0
  1  2  1  0  0  0  0
  1  5  1  0  0  0  0
  1 20  1  0  0  0  0
  1 21  1  0  0  0  0
  2  3  1  0  0  0  0
  2 12  1  0  0  0  0
  2 22  1  6  0  0  0
  3  4  2  0  0  0  0
  4  5  1  0  0  0  0
  4  6  1  0  0  0  0
  6  7  1  0  0  0  0
  6 23  1  0  0  0  0
  6 24  1  0  0  0  0
  7  8  2  0  0  0  0
  7 11  1  0  0  0  0
  8  9  1  0  0  0  0
  9 10  1  0  0  0  0
  9 13  1  0  0  0  0
  9 25  1  1  0  0  0
 10 11  1  0  0  0  0
 10 26  1  0  0  0  0
 10 27  1  0  0  0  0
 12 16  1  0  0  0  0
 12 17  1  0  0  0  0
 12 18  1  0  0  0  0
 13 14  1  0  0  0  0
 13 15  1  0  0  0  0
 13 19  1  0  0  0  0
 14 28  1  0  0  0  0
 14 29  1  0  0  0  0
 14 30  1  0  0  0  0
 15 31  1  0  0  0  0
 15 32  1  0  0  0  0
 15 33  1  0  0  0  0
 16 34  1  0  0  0  0
 16 35  1  0  0  0  0
 16 36  1  0  0  0  0
 17 37  1  0  0  0  0
 17 38  1  0  0  0  0
 17 39  1  0  0  0  0
 18 40  1  0  0  0  0
 18 41  1  0  0  0  0
 18 42  1  0  0  0  0
 19 43  1  0  0  0  0
 19 44  1  0  0  0  0
 19 45  1  0  0  0  0
M  END
$$$$
