Title Card Required
 OpenBabel03192317453D

 28 29  0  0  1  0  0  0  0  0999 V2000
    1.4491   -0.0888   -0.1481 C   0  0  0  0  0  0  0  0  0  0  0  0
    1.8745    1.2157   -0.4246 C   0  0  0  0  0  0  0  0  0  0  0  0
    3.2134    1.5258   -0.2187 C   0  0  0  0  0  0  0  0  0  0  0  0
    4.0653    0.5289    0.2538 C   0  0  0  0  0  0  0  0  0  0  0  0
    3.5338   -0.7382    0.4979 C   0  0  0  0  0  0  0  0  0  0  0  0
    2.2557   -1.0465    0.3023 N   0  0  0  0  0  0  0  0  0  0  0  0
   -0.3574   -1.6907   -0.0865 O   0  0  0  0  0  0  0  0  0  0  0  0
    0.0196   -0.4295   -0.3660 C   0  0  0  0  0  0  0  0  0  0  0  0
   -0.8580    0.3880   -0.7846 N   0  0  0  0  0  0  0  0  0  0  0  0
   -2.1361   -0.3255   -0.7680 C   0  0  1  0  0  0  0  0  0  0  0  0
   -1.7255   -1.7896   -0.4843 C   0  0  0  0  0  0  0  0  0  0  0  0
   -3.0850    0.2759    0.2848 C   0  0  0  0  0  0  0  0  0  0  0  0
   -2.4539    0.2762    1.6756 C   0  0  0  0  0  0  0  0  0  0  0  0
   -3.5152    1.6821   -0.1239 C   0  0  0  0  0  0  0  0  0  0  0  0
    1.1498    1.9417   -0.7922 H   0  0  0  0  0  0  0  0  0  0  0  0
    3.5882    2.5301   -0.4224 H   0  0  0  0  0  0  0  0  0  0  0  0
    5.1233    0.7238    0.4315 H   0  0  0  0  0  0  0  0  0  0  0  0
    4.1763   -1.5424    0.8691 H   0  0  0  0  0  0  0  0  0  0  0  0
   -2.6169   -0.2322   -1.7545 H   0  0  0  0  0  0  0  0  0  0  0  0
   -2.2997   -2.2586    0.3268 H   0  0  0  0  0  0  0  0  0  0  0  0
   -1.7823   -2.4281   -1.3782 H   0  0  0  0  0  0  0  0  0  0  0  0
   -3.9770   -0.3760    0.3001 H   0  0  0  0  0  0  0  0  0  0  0  0
   -1.6071    0.9779    1.7066 H   0  0  0  0  0  0  0  0  0  0  0  0
   -3.1845    0.5912    2.4342 H   0  0  0  0  0  0  0  0  0  0  0  0
   -2.0757   -0.7170    1.9623 H   0  0  0  0  0  0  0  0  0  0  0  0
   -4.0299    1.6769   -1.0960 H   0  0  0  0  0  0  0  0  0  0  0  0
   -4.1966    2.1182    0.6209 H   0  0  0  0  0  0  0  0  0  0  0  0
   -2.6319    2.3311   -0.2112 H   0  0  0  0  0  0  0  0  0  0  0  0
  1  2  2  0  0  0  0
  1  6  1  0  0  0  0
  1  8  1  0  0  0  0
  2  3  1  0  0  0  0
  2 15  1  0  0  0  0
  3  4  2  0  0  0  0
  3 16  1  0  0  0  0
  4  5  1  0  0  0  0
  4 17  1  0  0  0  0
  5  6  2  0  0  0  0
  5 18  1  0  0  0  0
  7  8  1  0  0  0  0
  7 11  1  0  0  0  0
  8  9  2  0  0  0  0
  9 10  1  0  0  0  0
 10 11  1  0  0  0  0
 10 12  1  0  0  0  0
 10 19  1  6  0  0  0
 11 20  1  0  0  0  0
 11 21  1  0  0  0  0
 12 13  1  0  0  0  0
 12 14  1  0  0  0  0
 12 22  1  0  0  0  0
 13 23  1  0  0  0  0
 13 24  1  0  0  0  0
 13 25  1  0  0  0  0
 14 26  1  0  0  0  0
 14 27  1  0  0  0  0
 14 28  1  0  0  0  0
M  END
$$$$
