Title Card Required
 OpenBabel03192317553D

 42 43  0  0  1  0  0  0  0  0999 V2000
   -1.3566    0.0060   -1.7694 O   0  0  0  0  0  0  0  0  0  0  0  0
   -0.6723   -0.2284   -0.6337 C   0  0  0  0  0  0  0  0  0  0  0  0
   -1.1940   -0.9088    0.2709 N   0  0  0  0  0  0  0  0  0  0  0  0
   -2.5556   -1.2139   -0.1782 C   0  0  2  0  0  0  0  0  0  0  0  0
   -2.5658   -0.7479   -1.6532 C   0  0  0  0  0  0  0  0  0  0  0  0
    2.5720    1.1204   -1.4302 C   0  0  0  0  0  0  0  0  0  0  0  0
    2.5701    1.2314    0.1151 C   0  0  1  0  0  0  0  0  0  0  0  0
    1.2047    0.8484    0.4866 N   0  0  0  0  0  0  0  0  0  0  0  0
    0.6749    0.3836   -0.5615 C   0  0  0  0  0  0  0  0  0  0  0  0
    1.3656    0.4072   -1.7190 O   0  0  0  0  0  0  0  0  0  0  0  0
   -3.5875   -0.5201    0.7305 C   0  0  1  0  0  0  0  0  0  0  0  0
    3.5905    0.3281    0.8324 C   0  0  1  0  0  0  0  0  0  0  0  0
   -3.3695    0.9962    0.7790 C   0  0  0  0  0  0  0  0  0  0  0  0
    3.3594   -1.1528    0.5131 C   0  0  0  0  0  0  0  0  0  0  0  0
   -4.3588    1.7345    1.6751 C   0  0  0  0  0  0  0  0  0  0  0  0
    4.3220   -2.0971    1.2266 C   0  0  0  0  0  0  0  0  0  0  0  0
   -5.0062   -0.9084    0.3175 C   0  0  0  0  0  0  0  0  0  0  0  0
    5.0149    0.7904    0.5308 C   0  0  0  0  0  0  0  0  0  0  0  0
   -2.7212   -2.2998   -0.1080 H   0  0  0  0  0  0  0  0  0  0  0  0
   -2.5241   -1.5843   -2.3657 H   0  0  0  0  0  0  0  0  0  0  0  0
   -3.4130   -0.0992   -1.9132 H   0  0  0  0  0  0  0  0  0  0  0  0
    2.5212    2.1007   -1.9263 H   0  0  0  0  0  0  0  0  0  0  0  0
    3.4201    0.5558   -1.8397 H   0  0  0  0  0  0  0  0  0  0  0  0
    2.7528    2.2684    0.4356 H   0  0  0  0  0  0  0  0  0  0  0  0
   -3.3995   -0.9147    1.7439 H   0  0  0  0  0  0  0  0  0  0  0  0
    3.3999    0.4681    1.9103 H   0  0  0  0  0  0  0  0  0  0  0  0
   -2.3458    1.1821    1.1381 H   0  0  0  0  0  0  0  0  0  0  0  0
   -3.4206    1.4114   -0.2438 H   0  0  0  0  0  0  0  0  0  0  0  0
    2.3265   -1.4064    0.7975 H   0  0  0  0  0  0  0  0  0  0  0  0
    3.4301   -1.3127   -0.5778 H   0  0  0  0  0  0  0  0  0  0  0  0
   -4.3628    1.3064    2.6894 H   0  0  0  0  0  0  0  0  0  0  0  0
   -4.0923    2.7968    1.7624 H   0  0  0  0  0  0  0  0  0  0  0  0
   -5.3857    1.6832    1.2859 H   0  0  0  0  0  0  0  0  0  0  0  0
    4.3133   -1.9176    2.3127 H   0  0  0  0  0  0  0  0  0  0  0  0
    4.0390   -3.1455    1.0594 H   0  0  0  0  0  0  0  0  0  0  0  0
    5.3565   -1.9752    0.8748 H   0  0  0  0  0  0  0  0  0  0  0  0
   -5.2795   -0.4619   -0.6526 H   0  0  0  0  0  0  0  0  0  0  0  0
   -5.1086   -2.0005    0.2296 H   0  0  0  0  0  0  0  0  0  0  0  0
   -5.7444   -0.5657    1.0548 H   0  0  0  0  0  0  0  0  0  0  0  0
    5.1340    1.8653    0.7336 H   0  0  0  0  0  0  0  0  0  0  0  0
    5.7473    0.2538    1.1486 H   0  0  0  0  0  0  0  0  0  0  0  0
    5.2816    0.6124   -0.5239 H   0  0  0  0  0  0  0  0  0  0  0  0
  1  2  1  0  0  0  0
  1  5  1  0  0  0  0
  2  3  2  0  0  0  0
  2  9  1  0  0  0  0
  3  4  1  0  0  0  0
  4  5  1  0  0  0  0
  4 11  1  0  0  0  0
  4 19  1  1  0  0  0
  5 20  1  0  0  0  0
  5 21  1  0  0  0  0
  6  7  1  0  0  0  0
  6 10  1  0  0  0  0
  6 22  1  0  0  0  0
  6 23  1  0  0  0  0
  7  8  1  0  0  0  0
  7 12  1  0  0  0  0
  7 24  1  1  0  0  0
  8  9  2  0  0  0  0
  9 10  1  0  0  0  0
 11 13  1  0  0  0  0
 11 17  1  0  0  0  0
 11 25  1  1  0  0  0
 12 14  1  0  0  0  0
 12 18  1  0  0  0  0
 12 26  1  1  0  0  0
 13 15  1  0  0  0  0
 13 27  1  0  0  0  0
 13 28  1  0  0  0  0
 14 16  1  0  0  0  0
 14 29  1  0  0  0  0
 14 30  1  0  0  0  0
 15 31  1  0  0  0  0
 15 32  1  0  0  0  0
 15 33  1  0  0  0  0
 16 34  1  0  0  0  0
 16 35  1  0  0  0  0
 16 36  1  0  0  0  0
 17 37  1  0  0  0  0
 17 38  1  0  0  0  0
 17 39  1  0  0  0  0
 18 40  1  0  0  0  0
 18 41  1  0  0  0  0
 18 42  1  0  0  0  0
M  END
$$$$
