Title Card Required
 OpenBabel03192317413D

 58 60  0  0  0  0  0  0  0  0999 V2000
   -5.0168    0.4662    0.6185 C   0  0  0  0  0  0  0  0  0  0  0  0
   -4.0637   -0.3197   -0.2711 C   0  0  0  0  0  0  0  0  0  0  0  0
   -2.7209   -0.1381    0.1584 O   0  0  0  0  0  0  0  0  0  0  0  0
   -2.0374    0.9917   -0.1343 C   0  0  0  0  0  0  0  0  0  0  0  0
   -2.5480    2.0348   -0.9174 C   0  0  0  0  0  0  0  0  0  0  0  0
   -1.7355    3.1311   -1.1903 C   0  0  0  0  0  0  0  0  0  0  0  0
   -0.4346    3.2156   -0.7067 C   0  0  0  0  0  0  0  0  0  0  0  0
    0.0737    2.1687    0.0763 C   0  0  0  0  0  0  0  0  0  0  0  0
    1.3046    2.1655    0.6235 O   0  0  0  0  0  0  0  0  0  0  0  0
    2.2528    3.1784    0.3110 C   0  0  0  0  0  0  0  0  0  0  0  0
    3.3418    3.0484    1.3602 C   0  0  0  0  0  0  0  0  0  0  0  0
    2.7958    3.0126   -1.1018 C   0  0  0  0  0  0  0  0  0  0  0  0
   -0.7226    1.0442    0.3626 C   0  0  0  0  0  0  0  0  0  0  0  0
   -0.1901   -0.0699    1.1967 C   0  0  0  0  0  0  0  0  0  0  0  0
    0.8998   -0.8382    0.7727 C   0  0  0  0  0  0  0  0  0  0  0  0
    1.8388   -0.7495   -0.7999 P   0  0  1  0  0  0  0  0  0  0  0  0
    3.0643   -1.9231    0.0102 C   0  0  0  0  0  0  0  0  0  0  0  0
    2.4522   -2.5687    1.1196 O   0  0  0  0  0  0  0  0  0  0  0  0
    1.3905   -1.8687    1.5856 C   0  0  0  0  0  0  0  0  0  0  0  0
    0.8013   -2.1757    2.8093 C   0  0  0  0  0  0  0  0  0  0  0  0
   -0.2950   -1.4153    3.2159 C   0  0  0  0  0  0  0  0  0  0  0  0
   -0.7854   -0.3758    2.4275 C   0  0  0  0  0  0  0  0  0  0  0  0
   -4.3181   -1.8147   -0.2107 C   0  0  0  0  0  0  0  0  0  0  0  0
    0.8500   -1.9457   -1.8966 C   0  0  0  0  0  0  0  0  0  0  0  0
   -0.4692   -1.2442   -2.2343 C   0  0  0  0  0  0  0  0  0  0  0  0
    1.6777   -2.1364   -3.1716 C   0  0  0  0  0  0  0  0  0  0  0  0
    0.5549   -3.2975   -1.2482 C   0  0  0  0  0  0  0  0  0  0  0  0
   -4.9447    0.0932    1.6506 H   0  0  0  0  0  0  0  0  0  0  0  0
   -6.0534    0.3453    0.2737 H   0  0  0  0  0  0  0  0  0  0  0  0
   -4.7735    1.5373    0.6219 H   0  0  0  0  0  0  0  0  0  0  0  0
   -4.1536    0.0166   -1.3191 H   0  0  0  0  0  0  0  0  0  0  0  0
   -3.5614    2.0012   -1.3113 H   0  0  0  0  0  0  0  0  0  0  0  0
   -2.1304    3.9467   -1.7984 H   0  0  0  0  0  0  0  0  0  0  0  0
    0.1708    4.0901   -0.9349 H   0  0  0  0  0  0  0  0  0  0  0  0
    1.7672    4.1649    0.4194 H   0  0  0  0  0  0  0  0  0  0  0  0
    3.8049    2.0536    1.2869 H   0  0  0  0  0  0  0  0  0  0  0  0
    4.1163    3.8127    1.2092 H   0  0  0  0  0  0  0  0  0  0  0  0
    2.9187    3.1599    2.3669 H   0  0  0  0  0  0  0  0  0  0  0  0
    1.9932    3.0315   -1.8515 H   0  0  0  0  0  0  0  0  0  0  0  0
    3.5056    3.8209   -1.3290 H   0  0  0  0  0  0  0  0  0  0  0  0
    3.3105    2.0455   -1.1883 H   0  0  0  0  0  0  0  0  0  0  0  0
    3.9283   -1.3393    0.3709 H   0  0  0  0  0  0  0  0  0  0  0  0
    3.4324   -2.6902   -0.6858 H   0  0  0  0  0  0  0  0  0  0  0  0
    1.2040   -2.9854    3.4172 H   0  0  0  0  0  0  0  0  0  0  0  0
   -0.7707   -1.6333    4.1737 H   0  0  0  0  0  0  0  0  0  0  0  0
   -1.6412    0.2126    2.7602 H   0  0  0  0  0  0  0  0  0  0  0  0
   -5.3477   -2.0425   -0.5188 H   0  0  0  0  0  0  0  0  0  0  0  0
   -3.6220   -2.3501   -0.8701 H   0  0  0  0  0  0  0  0  0  0  0  0
   -4.1672   -2.1747    0.8170 H   0  0  0  0  0  0  0  0  0  0  0  0
   -0.3061   -0.2261   -2.6237 H   0  0  0  0  0  0  0  0  0  0  0  0
   -1.0090   -1.8224   -3.0032 H   0  0  0  0  0  0  0  0  0  0  0  0
   -1.1146   -1.1741   -1.3460 H   0  0  0  0  0  0  0  0  0  0  0  0
    2.6499   -2.6105   -2.9628 H   0  0  0  0  0  0  0  0  0  0  0  0
    1.1359   -2.7892   -3.8752 H   0  0  0  0  0  0  0  0  0  0  0  0
    1.8667   -1.1750   -3.6727 H   0  0  0  0  0  0  0  0  0  0  0  0
    1.4721   -3.8494   -0.9960 H   0  0  0  0  0  0  0  0  0  0  0  0
   -0.0369   -3.1784   -0.3282 H   0  0  0  0  0  0  0  0  0  0  0  0
   -0.0305   -3.9194   -1.9465 H   0  0  0  0  0  0  0  0  0  0  0  0
  1  2  1  0  0  0  0
  1 28  1  0  0  0  0
  1 29  1  0  0  0  0
  1 30  1  0  0  0  0
  2  3  1  0  0  0  0
  2 23  1  0  0  0  0
  2 31  1  0  0  0  0
  3  4  1  0  0  0  0
  4  5  2  0  0  0  0
  4 13  1  0  0  0  0
  5  6  1  0  0  0  0
  5 32  1  0  0  0  0
  6  7  2  0  0  0  0
  6 33  1  0  0  0  0
  7  8  1  0  0  0  0
  7 34  1  0  0  0  0
  8  9  1  0  0  0  0
  8 13  2  0  0  0  0
  9 10  1  0  0  0  0
 10 11  1  0  0  0  0
 10 12  1  0  0  0  0
 10 35  1  0  0  0  0
 11 36  1  0  0  0  0
 11 37  1  0  0  0  0
 11 38  1  0  0  0  0
 12 39  1  0  0  0  0
 12 40  1  0  0  0  0
 12 41  1  0  0  0  0
 13 14  1  0  0  0  0
 14 15  2  0  0  0  0
 14 22  1  0  0  0  0
 15 16  1  0  0  0  0
 15 19  1  0  0  0  0
 16 17  1  0  0  0  0
 16 24  1  6  0  0  0
 17 18  1  0  0  0  0
 17 42  1  0  0  0  0
 17 43  1  0  0  0  0
 18 19  1  0  0  0  0
 19 20  2  0  0  0  0
 20 21  1  0  0  0  0
 20 44  1  0  0  0  0
 21 22  2  0  0  0  0
 21 45  1  0  0  0  0
 22 46  1  0  0  0  0
 23 47  1  0  0  0  0
 23 48  1  0  0  0  0
 23 49  1  0  0  0  0
 24 25  1  0  0  0  0
 24 26  1  0  0  0  0
 24 27  1  0  0  0  0
 25 50  1  0  0  0  0
 25 51  1  0  0  0  0
 25 52  1  0  0  0  0
 26 53  1  0  0  0  0
 26 54  1  0  0  0  0
 26 55  1  0  0  0  0
 27 56  1  0  0  0  0
 27 57  1  0  0  0  0
 27 58  1  0  0  0  0
M  END
$$$$
