Title Card Required
 OpenBabel03192317403D

 72 78  0  0  1  0  0  0  0  0999 V2000
    3.5123    0.7724    0.8467 N   0  0  2  0  0  0  0  0  0  0  0  0
    2.8451    0.0341   -0.2232 C   0  0  1  0  0  0  0  0  0  0  0  0
    3.4150   -1.4043   -0.3379 C   0  0  0  0  0  0  0  0  0  0  0  0
    4.6882   -1.4723    0.5168 C   0  0  1  0  0  0  0  0  0  0  0  0
    5.6468   -0.3260    0.1438 C   0  0  2  0  0  0  0  0  0  0  0  0
    4.9008    1.0067    0.4627 C   0  0  0  0  0  0  0  0  0  0  0  0
    4.2765   -1.3027    1.9852 C   0  0  0  0  0  0  0  0  0  0  0  0
    3.4778    0.0259    2.1028 C   0  0  0  0  0  0  0  0  0  0  0  0
    1.3239    0.0329   -0.0792 C   0  0  2  0  0  0  0  0  0  0  0  0
    0.8559   -0.5121   -1.3324 O   0  0  0  0  0  0  0  0  0  0  0  0
   -3.4941    1.3820   -2.1836 C   0  0  0  0  0  0  0  0  0  0  0  0
   -4.8535    1.4039   -1.9526 C   0  0  0  0  0  0  0  0  0  0  0  0
   -5.4703    0.3072   -1.3232 C   0  0  0  0  0  0  0  0  0  0  0  0
   -4.7203   -0.7885   -0.9397 C   0  0  0  0  0  0  0  0  0  0  0  0
   -3.3258   -0.8358   -1.1587 C   0  0  0  0  0  0  0  0  0  0  0  0
   -2.4982   -1.9564   -0.7317 C   0  0  0  0  0  0  0  0  0  0  0  0
   -3.0347   -3.1238   -0.1451 C   0  0  0  0  0  0  0  0  0  0  0  0
   -2.2208   -4.1581    0.2732 C   0  0  0  0  0  0  0  0  0  0  0  0
   -0.8261   -4.0718    0.1152 C   0  0  0  0  0  0  0  0  0  0  0  0
   -0.2711   -2.9425   -0.4514 C   0  0  0  0  0  0  0  0  0  0  0  0
   -1.0899   -1.8728   -0.8734 C   0  0  0  0  0  0  0  0  0  0  0  0
   -0.5028   -0.6709   -1.4205 C   0  0  0  0  0  0  0  0  0  0  0  0
   -1.2791    0.3194   -1.9277 C   0  0  0  0  0  0  0  0  0  0  0  0
   -2.7079    0.2749   -1.7895 C   0  0  0  0  0  0  0  0  0  0  0  0
   -0.6699    3.8752    0.1850 N   0  0  0  0  0  0  0  0  0  0  0  0
    0.5465    3.7621   -0.2789 C   0  0  0  0  0  0  0  0  0  0  0  0
    1.2592    2.5370   -0.3281 C   0  0  0  0  0  0  0  0  0  0  0  0
    0.6927    1.3898    0.1739 C   0  0  0  0  0  0  0  0  0  0  0  0
   -0.6031    1.4974    0.7826 C   0  0  0  0  0  0  0  0  0  0  0  0
   -1.3005    0.4120    1.3661 C   0  0  0  0  0  0  0  0  0  0  0  0
   -2.6184    0.5390    1.7572 C   0  0  0  0  0  0  0  0  0  0  0  0
   -3.2858    1.7880    1.6344 C   0  0  0  0  0  0  0  0  0  0  0  0
   -2.6047    2.8706    1.1379 C   0  0  0  0  0  0  0  0  0  0  0  0
   -1.2584    2.7645    0.6999 C   0  0  0  0  0  0  0  0  0  0  0  0
   -3.2192   -0.5760    2.2298 O   0  0  0  0  0  0  0  0  0  0  0  0
   -4.5546   -0.4991    2.6540 C   0  0  0  0  0  0  0  0  0  0  0  0
    6.1340   -0.3955   -1.3045 C   0  0  0  0  0  0  0  0  0  0  0  0
    7.2866    0.5623   -1.5877 C   0  0  0  0  0  0  0  0  0  0  0  0
    5.1936   -2.4390    0.3708 H   0  0  0  0  0  0  0  0  0  0  0  0
    3.0573    0.5728   -1.1611 H   0  0  0  0  0  0  0  0  0  0  0  0
    2.6897   -2.1368    0.0518 H   0  0  0  0  0  0  0  0  0  0  0  0
    3.6042   -1.6724   -1.3861 H   0  0  0  0  0  0  0  0  0  0  0  0
    6.5318   -0.4113    0.7980 H   0  0  0  0  0  0  0  0  0  0  0  0
    5.3897    1.5565    1.2806 H   0  0  0  0  0  0  0  0  0  0  0  0
    4.9054    1.6701   -0.4188 H   0  0  0  0  0  0  0  0  0  0  0  0
    3.6680   -2.1610    2.3082 H   0  0  0  0  0  0  0  0  0  0  0  0
    5.1729   -1.2830    2.6240 H   0  0  0  0  0  0  0  0  0  0  0  0
    3.8909    0.6719    2.8908 H   0  0  0  0  0  0  0  0  0  0  0  0
    2.4272   -0.1569    2.3730 H   0  0  0  0  0  0  0  0  0  0  0  0
    1.0362   -0.6662    0.7256 H   0  0  0  0  0  0  0  0  0  0  0  0
   -2.9978    2.2332   -2.6544 H   0  0  0  0  0  0  0  0  0  0  0  0
   -5.4476    2.2691   -2.2504 H   0  0  0  0  0  0  0  0  0  0  0  0
   -6.5458    0.3189   -1.1387 H   0  0  0  0  0  0  0  0  0  0  0  0
   -5.2219   -1.6240   -0.4516 H   0  0  0  0  0  0  0  0  0  0  0  0
   -4.1125   -3.2208   -0.0196 H   0  0  0  0  0  0  0  0  0  0  0  0
   -2.6642   -5.0482    0.7216 H   0  0  0  0  0  0  0  0  0  0  0  0
   -0.1876   -4.8977    0.4319 H   0  0  0  0  0  0  0  0  0  0  0  0
    0.8048   -2.8587   -0.6038 H   0  0  0  0  0  0  0  0  0  0  0  0
   -0.8033    1.2169   -2.3268 H   0  0  0  0  0  0  0  0  0  0  0  0
    1.0134    4.6706   -0.6745 H   0  0  0  0  0  0  0  0  0  0  0  0
    2.2489    2.5180   -0.7830 H   0  0  0  0  0  0  0  0  0  0  0  0
   -0.8510   -0.5740    1.4758 H   0  0  0  0  0  0  0  0  0  0  0  0
   -4.3276    1.8952    1.9329 H   0  0  0  0  0  0  0  0  0  0  0  0
   -3.0800    3.8474    1.0425 H   0  0  0  0  0  0  0  0  0  0  0  0
   -4.6724    0.2009    3.4980 H   0  0  0  0  0  0  0  0  0  0  0  0
   -5.2228   -0.1902    1.8331 H   0  0  0  0  0  0  0  0  0  0  0  0
   -4.8341   -1.5061    2.9844 H   0  0  0  0  0  0  0  0  0  0  0  0
    6.4474   -1.4279   -1.5332 H   0  0  0  0  0  0  0  0  0  0  0  0
    5.2930   -0.1716   -1.9835 H   0  0  0  0  0  0  0  0  0  0  0  0
    8.1602    0.3174   -0.9650 H   0  0  0  0  0  0  0  0  0  0  0  0
    7.5996    0.5181   -2.6401 H   0  0  0  0  0  0  0  0  0  0  0  0
    7.0063    1.6039   -1.3685 H   0  0  0  0  0  0  0  0  0  0  0  0
  1  2  1  0  0  0  0
  1  6  1  6  0  0  0
  1  8  1  0  0  0  0
  2  3  1  0  0  0  0
  2  9  1  0  0  0  0
  2 40  1  6  0  0  0
  3  4  1  0  0  0  0
  3 41  1  0  0  0  0
  3 42  1  0  0  0  0
  4  5  1  0  0  0  0
  4  7  1  0  0  0  0
  4 39  1  6  0  0  0
  5  6  1  0  0  0  0
  5 37  1  0  0  0  0
  5 43  1  1  0  0  0
  6 44  1  0  0  0  0
  6 45  1  0  0  0  0
  7  8  1  0  0  0  0
  7 46  1  0  0  0  0
  7 47  1  0  0  0  0
  8 48  1  0  0  0  0
  8 49  1  0  0  0  0
  9 10  1  0  0  0  0
  9 28  1  0  0  0  0
  9 50  1  1  0  0  0
 10 22  1  0  0  0  0
 11 12  2  0  0  0  0
 11 24  1  0  0  0  0
 11 51  1  0  0  0  0
 12 13  1  0  0  0  0
 12 52  1  0  0  0  0
 13 14  2  0  0  0  0
 13 53  1  0  0  0  0
 14 15  1  0  0  0  0
 14 54  1  0  0  0  0
 15 16  2  0  0  0  0
 15 24  1  0  0  0  0
 16 17  1  0  0  0  0
 16 21  1  0  0  0  0
 17 18  2  0  0  0  0
 17 55  1  0  0  0  0
 18 19  1  0  0  0  0
 18 56  1  0  0  0  0
 19 20  2  0  0  0  0
 19 57  1  0  0  0  0
 20 21  1  0  0  0  0
 20 58  1  0  0  0  0
 21 22  2  0  0  0  0
 22 23  1  0  0  0  0
 23 24  2  0  0  0  0
 23 59  1  0  0  0  0
 25 26  2  0  0  0  0
 25 34  1  0  0  0  0
 26 27  1  0  0  0  0
 26 60  1  0  0  0  0
 27 28  2  0  0  0  0
 27 61  1  0  0  0  0
 28 29  1  0  0  0  0
 29 30  2  0  0  0  0
 29 34  1  0  0  0  0
 30 31  1  0  0  0  0
 30 62  1  0  0  0  0
 31 32  2  0  0  0  0
 31 35  1  0  0  0  0
 32 33  1  0  0  0  0
 32 63  1  0  0  0  0
 33 34  2  0  0  0  0
 33 64  1  0  0  0  0
 35 36  1  0  0  0  0
 36 65  1  0  0  0  0
 36 66  1  0  0  0  0
 36 67  1  0  0  0  0
 37 38  1  0  0  0  0
 37 68  1  0  0  0  0
 37 69  1  0  0  0  0
 38 70  1  0  0  0  0
 38 71  1  0  0  0  0
 38 72  1  0  0  0  0
M  END
$$$$
