Title Card Required
 OpenBabel03192317553D

102109  0  0  0  0  0  0  0  0999 V2000
    0.5471   -1.8091   -0.3500 C   0  0  0  0  0  0  0  0  0  0  0  0
    1.7094   -1.1273   -0.6715 C   0  0  0  0  0  0  0  0  0  0  0  0
    2.3783   -1.4138   -1.8965 C   0  0  0  0  0  0  0  0  0  0  0  0
    1.8922   -2.3556   -2.7640 C   0  0  0  0  0  0  0  0  0  0  0  0
    0.7099   -3.0832   -2.4577 C   0  0  0  0  0  0  0  0  0  0  0  0
    0.1969   -4.0748   -3.3358 C   0  0  0  0  0  0  0  0  0  0  0  0
   -0.9379   -4.7800   -3.0154 C   0  0  0  0  0  0  0  0  0  0  0  0
   -1.6088   -4.5242   -1.7953 C   0  0  0  0  0  0  0  0  0  0  0  0
   -1.1385   -3.5664   -0.9275 C   0  0  0  0  0  0  0  0  0  0  0  0
    0.0301   -2.8140   -1.2355 C   0  0  0  0  0  0  0  0  0  0  0  0
   -0.1662   -1.5798    0.9477 C   0  0  0  0  0  0  0  0  0  0  0  0
   -1.2750   -0.7566    1.0426 C   0  0  0  0  0  0  0  0  0  0  0  0
   -1.9580   -0.6361    2.2891 C   0  0  0  0  0  0  0  0  0  0  0  0
   -1.5310   -1.3082    3.4006 C   0  0  0  0  0  0  0  0  0  0  0  0
   -0.3919   -2.1589    3.3387 C   0  0  0  0  0  0  0  0  0  0  0  0
    0.0696   -2.8667    4.4796 C   0  0  0  0  0  0  0  0  0  0  0  0
    1.1654   -3.6915    4.3999 C   0  0  0  0  0  0  0  0  0  0  0  0
    1.8458   -3.8463    3.1691 C   0  0  0  0  0  0  0  0  0  0  0  0
    1.4209   -3.1730    2.0477 C   0  0  0  0  0  0  0  0  0  0  0  0
    0.2940   -2.3064    2.1010 C   0  0  0  0  0  0  0  0  0  0  0  0
   -1.8850    0.1671   -0.4519 P   0  0  0  0  0  0  0  0  0  0  0  0
   -3.6596   -0.3609   -0.4439 C   0  0  0  0  0  0  0  0  0  0  0  0
   -4.6679    0.2332    0.3230 C   0  0  0  0  0  0  0  0  0  0  0  0
   -5.9779   -0.2540    0.2889 C   0  0  0  0  0  0  0  0  0  0  0  0
   -6.2640   -1.3512   -0.5298 C   0  0  0  0  0  0  0  0  0  0  0  0
   -5.2805   -1.9592   -1.3146 C   0  0  0  0  0  0  0  0  0  0  0  0
   -3.9817   -1.4438   -1.2699 C   0  0  0  0  0  0  0  0  0  0  0  0
   -5.6176   -3.1377   -2.1914 C   0  0  0  0  0  0  0  0  0  0  0  0
   -7.0618    0.3755    1.1260 C   0  0  0  0  0  0  0  0  0  0  0  0
   -2.0027    1.8816    0.2161 C   0  0  0  0  0  0  0  0  0  0  0  0
   -1.2495    2.3232    1.3023 C   0  0  0  0  0  0  0  0  0  0  0  0
   -1.2879    3.6645    1.7115 C   0  0  0  0  0  0  0  0  0  0  0  0
   -2.0750    4.5628    0.9949 C   0  0  0  0  0  0  0  0  0  0  0  0
   -2.8241    4.1527   -0.1189 C   0  0  0  0  0  0  0  0  0  0  0  0
   -2.7816    2.8118   -0.4930 C   0  0  0  0  0  0  0  0  0  0  0  0
   -3.6316    5.1542   -0.9034 C   0  0  0  0  0  0  0  0  0  0  0  0
   -0.4774    4.0971    2.9043 C   0  0  0  0  0  0  0  0  0  0  0  0
    2.3509    0.1525    0.5091 P   0  0  0  0  0  0  0  0  0  0  0  0
    4.1379    0.1623    0.0436 C   0  0  0  0  0  0  0  0  0  0  0  0
    4.7286    1.1122   -0.7953 C   0  0  0  0  0  0  0  0  0  0  0  0
    6.0950    1.0555   -1.0914 C   0  0  0  0  0  0  0  0  0  0  0  0
    6.8589    0.0227   -0.5412 C   0  0  0  0  0  0  0  0  0  0  0  0
    6.2945   -0.9421    0.2992 C   0  0  0  0  0  0  0  0  0  0  0  0
    4.9319   -0.8501    0.5945 C   0  0  0  0  0  0  0  0  0  0  0  0
    7.1377   -2.0574    0.8608 C   0  0  0  0  0  0  0  0  0  0  0  0
    6.7404    2.0856   -1.9825 C   0  0  0  0  0  0  0  0  0  0  0  0
    1.7348    1.6965   -0.2875 C   0  0  0  0  0  0  0  0  0  0  0  0
    1.9939    2.9107    0.3710 C   0  0  0  0  0  0  0  0  0  0  0  0
    1.4660    4.1103   -0.1010 C   0  0  0  0  0  0  0  0  0  0  0  0
    0.6337    4.0778   -1.2297 C   0  0  0  0  0  0  0  0  0  0  0  0
    0.3644    2.8912   -1.9046 C   0  0  0  0  0  0  0  0  0  0  0  0
    0.9438    1.7024   -1.4344 C   0  0  0  0  0  0  0  0  0  0  0  0
   -0.5467    2.8539   -3.1020 C   0  0  0  0  0  0  0  0  0  0  0  0
    1.7231    5.4179    0.5999 C   0  0  0  0  0  0  0  0  0  0  0  0
    3.2907   -0.8668   -2.1420 H   0  0  0  0  0  0  0  0  0  0  0  0
    2.4112   -2.5637   -3.7020 H   0  0  0  0  0  0  0  0  0  0  0  0
    0.7251   -4.2670   -4.2721 H   0  0  0  0  0  0  0  0  0  0  0  0
   -1.3221   -5.5401   -3.6974 H   0  0  0  0  0  0  0  0  0  0  0  0
   -2.5057   -5.0916   -1.5408 H   0  0  0  0  0  0  0  0  0  0  0  0
   -1.6669   -3.3727    0.0076 H   0  0  0  0  0  0  0  0  0  0  0  0
   -2.8347    0.0119    2.3476 H   0  0  0  0  0  0  0  0  0  0  0  0
   -2.0608   -1.2047    4.3500 H   0  0  0  0  0  0  0  0  0  0  0  0
   -0.4648   -2.7418    5.4237 H   0  0  0  0  0  0  0  0  0  0  0  0
    1.5115   -4.2307    5.2831 H   0  0  0  0  0  0  0  0  0  0  0  0
    2.7119   -4.5073    3.1104 H   0  0  0  0  0  0  0  0  0  0  0  0
    1.9487   -3.2997    1.1014 H   0  0  0  0  0  0  0  0  0  0  0  0
   -4.4362    1.0997    0.9484 H   0  0  0  0  0  0  0  0  0  0  0  0
   -7.2879   -1.7364   -0.5649 H   0  0  0  0  0  0  0  0  0  0  0  0
   -3.2044   -1.8913   -1.8960 H   0  0  0  0  0  0  0  0  0  0  0  0
   -5.9102   -4.0077   -1.5840 H   0  0  0  0  0  0  0  0  0  0  0  0
   -6.4603   -2.9069   -2.8592 H   0  0  0  0  0  0  0  0  0  0  0  0
   -4.7585   -3.4289   -2.8101 H   0  0  0  0  0  0  0  0  0  0  0  0
   -7.9585    0.5817    0.5240 H   0  0  0  0  0  0  0  0  0  0  0  0
   -7.3638   -0.2945    1.9454 H   0  0  0  0  0  0  0  0  0  0  0  0
   -6.7223    1.3202    1.5705 H   0  0  0  0  0  0  0  0  0  0  0  0
   -0.6117    1.6242    1.8503 H   0  0  0  0  0  0  0  0  0  0  0  0
   -2.1110    5.6114    1.3063 H   0  0  0  0  0  0  0  0  0  0  0  0
   -3.3700    2.4808   -1.3548 H   0  0  0  0  0  0  0  0  0  0  0  0
   -4.2187    5.8032   -0.2379 H   0  0  0  0  0  0  0  0  0  0  0  0
   -2.9728    5.8064   -1.4985 H   0  0  0  0  0  0  0  0  0  0  0  0
   -4.3228    4.6555   -1.5955 H   0  0  0  0  0  0  0  0  0  0  0  0
   -0.5998    5.1689    3.1108 H   0  0  0  0  0  0  0  0  0  0  0  0
   -0.7736    3.5372    3.8036 H   0  0  0  0  0  0  0  0  0  0  0  0
    0.5914    3.8956    2.7333 H   0  0  0  0  0  0  0  0  0  0  0  0
    4.1192    1.9092   -1.2287 H   0  0  0  0  0  0  0  0  0  0  0  0
    7.9282   -0.0282   -0.7682 H   0  0  0  0  0  0  0  0  0  0  0  0
    4.4788   -1.5816    1.2718 H   0  0  0  0  0  0  0  0  0  0  0  0
    7.3130   -2.8343    0.1006 H   0  0  0  0  0  0  0  0  0  0  0  0
    8.1201   -1.6884    1.1871 H   0  0  0  0  0  0  0  0  0  0  0  0
    6.6460   -2.5349    1.7186 H   0  0  0  0  0  0  0  0  0  0  0  0
    7.4922    2.6671   -1.4281 H   0  0  0  0  0  0  0  0  0  0  0  0
    7.2557    1.6082   -2.8290 H   0  0  0  0  0  0  0  0  0  0  0  0
    5.9978    2.7868   -2.3845 H   0  0  0  0  0  0  0  0  0  0  0  0
    2.6124    2.9136    1.2747 H   0  0  0  0  0  0  0  0  0  0  0  0
    0.1752    5.0081   -1.5791 H   0  0  0  0  0  0  0  0  0  0  0  0
    0.7253    0.7704   -1.9589 H   0  0  0  0  0  0  0  0  0  0  0  0
   -1.1447    3.7728   -3.1757 H   0  0  0  0  0  0  0  0  0  0  0  0
    0.0270    2.7418   -4.0352 H   0  0  0  0  0  0  0  0  0  0  0  0
   -1.2323    1.9952   -3.0321 H   0  0  0  0  0  0  0  0  0  0  0  0
    2.1587    6.1566   -0.0891 H   0  0  0  0  0  0  0  0  0  0  0  0
    0.7791    5.8398    0.9805 H   0  0  0  0  0  0  0  0  0  0  0  0
    2.4102    5.2937    1.4475 H   0  0  0  0  0  0  0  0  0  0  0  0
  1  2  2  0  0  0  0
  1 10  1  0  0  0  0
  1 11  1  0  0  0  0
  2  3  1  0  0  0  0
  2 38  1  0  0  0  0
  3  4  2  0  0  0  0
  3 55  1  0  0  0  0
  4  5  1  0  0  0  0
  4 56  1  0  0  0  0
  5  6  2  0  0  0  0
  5 10  1  0  0  0  0
  6  7  1  0  0  0  0
  6 57  1  0  0  0  0
  7  8  2  0  0  0  0
  7 58  1  0  0  0  0
  8  9  1  0  0  0  0
  8 59  1  0  0  0  0
  9 10  2  0  0  0  0
  9 60  1  0  0  0  0
 11 12  2  0  0  0  0
 11 20  1  0  0  0  0
 12 13  1  0  0  0  0
 12 21  1  0  0  0  0
 13 14  2  0  0  0  0
 13 61  1  0  0  0  0
 14 15  1  0  0  0  0
 14 62  1  0  0  0  0
 15 16  2  0  0  0  0
 15 20  1  0  0  0  0
 16 17  1  0  0  0  0
 16 63  1  0  0  0  0
 17 18  2  0  0  0  0
 17 64  1  0  0  0  0
 18 19  1  0  0  0  0
 18 65  1  0  0  0  0
 19 20  2  0  0  0  0
 19 66  1  0  0  0  0
 21 22  1  0  0  0  0
 21 30  1  0  0  0  0
 22 23  2  0  0  0  0
 22 27  1  0  0  0  0
 23 24  1  0  0  0  0
 23 67  1  0  0  0  0
 24 25  2  0  0  0  0
 24 29  1  0  0  0  0
 25 26  1  0  0  0  0
 25 68  1  0  0  0  0
 26 27  2  0  0  0  0
 26 28  1  0  0  0  0
 27 69  1  0  0  0  0
 28 70  1  0  0  0  0
 28 71  1  0  0  0  0
 28 72  1  0  0  0  0
 29 73  1  0  0  0  0
 29 74  1  0  0  0  0
 29 75  1  0  0  0  0
 30 31  2  0  0  0  0
 30 35  1  0  0  0  0
 31 32  1  0  0  0  0
 31 76  1  0  0  0  0
 32 33  2  0  0  0  0
 32 37  1  0  0  0  0
 33 34  1  0  0  0  0
 33 77  1  0  0  0  0
 34 35  2  0  0  0  0
 34 36  1  0  0  0  0
 35 78  1  0  0  0  0
 36 79  1  0  0  0  0
 36 80  1  0  0  0  0
 36 81  1  0  0  0  0
 37 82  1  0  0  0  0
 37 83  1  0  0  0  0
 37 84  1  0  0  0  0
 38 39  1  0  0  0  0
 38 47  1  0  0  0  0
 39 40  2  0  0  0  0
 39 44  1  0  0  0  0
 40 41  1  0  0  0  0
 40 85  1  0  0  0  0
 41 42  2  0  0  0  0
 41 46  1  0  0  0  0
 42 43  1  0  0  0  0
 42 86  1  0  0  0  0
 43 44  2  0  0  0  0
 43 45  1  0  0  0  0
 44 87  1  0  0  0  0
 45 88  1  0  0  0  0
 45 89  1  0  0  0  0
 45 90  1  0  0  0  0
 46 91  1  0  0  0  0
 46 92  1  0  0  0  0
 46 93  1  0  0  0  0
 47 48  2  0  0  0  0
 47 52  1  0  0  0  0
 48 49  1  0  0  0  0
 48 94  1  0  0  0  0
 49 50  2  0  0  0  0
 49 54  1  0  0  0  0
 50 51  1  0  0  0  0
 50 95  1  0  0  0  0
 51 52  2  0  0  0  0
 51 53  1  0  0  0  0
 52 96  1  0  0  0  0
 53 97  1  0  0  0  0
 53 98  1  0  0  0  0
 53 99  1  0  0  0  0
 54100  1  0  0  0  0
 54101  1  0  0  0  0
 54102  1  0  0  0  0
M  END
$$$$
