Title Card Required
 OpenBabel03192317563D

 40 45  0  0  1  0  0  0  0  0999 V2000
   -1.0713    1.1958    0.7824 O   0  0  0  0  0  0  0  0  0  0  0  0
   -0.6345   -0.0186    0.3852 C   0  0  0  0  0  0  0  0  0  0  0  0
   -1.3065   -1.0483    0.6804 N   0  0  0  0  0  0  0  0  0  0  0  0
   -2.4957   -0.5556    1.3752 C   0  0  1  0  0  0  0  0  0  0  0  0
   -2.2459    0.9707    1.5737 C   0  0  2  0  0  0  0  0  0  0  0  0
    2.2459    0.9707   -1.5737 C   0  0  1  0  0  0  0  0  0  0  0  0
    2.4957   -0.5557   -1.3752 C   0  0  2  0  0  0  0  0  0  0  0  0
    1.3065   -1.0483   -0.6803 N   0  0  0  0  0  0  0  0  0  0  0  0
    0.6344   -0.0186   -0.3851 C   0  0  0  0  0  0  0  0  0  0  0  0
    1.0712    1.1957   -0.7823 O   0  0  0  0  0  0  0  0  0  0  0  0
   -3.4584    1.7221    1.0086 C   0  0  0  0  0  0  0  0  0  0  0  0
   -4.2424    0.6650    0.2664 C   0  0  0  0  0  0  0  0  0  0  0  0
   -3.7246   -0.6111    0.4937 C   0  0  0  0  0  0  0  0  0  0  0  0
    3.7246   -0.6111   -0.4937 C   0  0  0  0  0  0  0  0  0  0  0  0
    4.2424    0.6650   -0.2665 C   0  0  0  0  0  0  0  0  0  0  0  0
    3.4583    1.7221   -1.0085 C   0  0  0  0  0  0  0  0  0  0  0  0
    4.2951   -1.7354    0.0978 C   0  0  0  0  0  0  0  0  0  0  0  0
    5.4123   -1.5685    0.9145 C   0  0  0  0  0  0  0  0  0  0  0  0
    5.9413   -0.2935    1.1378 C   0  0  0  0  0  0  0  0  0  0  0  0
    5.3598    0.8300    0.5509 C   0  0  0  0  0  0  0  0  0  0  0  0
   -5.3597    0.8300   -0.5511 C   0  0  0  0  0  0  0  0  0  0  0  0
   -5.9412   -0.2935   -1.1380 C   0  0  0  0  0  0  0  0  0  0  0  0
   -5.4122   -1.5686   -0.9146 C   0  0  0  0  0  0  0  0  0  0  0  0
   -4.2951   -1.7354   -0.0978 C   0  0  0  0  0  0  0  0  0  0  0  0
   -2.6365   -1.1115    2.3141 H   0  0  0  0  0  0  0  0  0  0  0  0
   -2.0074    1.2580    2.6069 H   0  0  0  0  0  0  0  0  0  0  0  0
    2.0073    1.2579   -2.6069 H   0  0  0  0  0  0  0  0  0  0  0  0
    2.6364   -1.1115   -2.3140 H   0  0  0  0  0  0  0  0  0  0  0  0
   -4.0570    2.1627    1.8207 H   0  0  0  0  0  0  0  0  0  0  0  0
   -3.1261    2.5454    0.3601 H   0  0  0  0  0  0  0  0  0  0  0  0
    4.0568    2.1630   -1.8205 H   0  0  0  0  0  0  0  0  0  0  0  0
    3.1259    2.5452   -0.3599 H   0  0  0  0  0  0  0  0  0  0  0  0
    3.8616   -2.7233   -0.0677 H   0  0  0  0  0  0  0  0  0  0  0  0
    5.8742   -2.4360    1.3883 H   0  0  0  0  0  0  0  0  0  0  0  0
    6.8139   -0.1770    1.7826 H   0  0  0  0  0  0  0  0  0  0  0  0
    5.7725    1.8244    0.7334 H   0  0  0  0  0  0  0  0  0  0  0  0
   -5.7723    1.8244   -0.7337 H   0  0  0  0  0  0  0  0  0  0  0  0
   -6.8137   -0.1770   -1.7829 H   0  0  0  0  0  0  0  0  0  0  0  0
   -5.8741   -2.4361   -1.3884 H   0  0  0  0  0  0  0  0  0  0  0  0
   -3.8617   -2.7233    0.0678 H   0  0  0  0  0  0  0  0  0  0  0  0
  1  2  1  0  0  0  0
  1  5  1  0  0  0  0
  2  3  2  0  0  0  0
  2  9  1  0  0  0  0
  3  4  1  0  0  0  0
  4  5  1  0  0  0  0
  4 13  1  0  0  0  0
  4 25  1  1  0  0  0
  5 11  1  0  0  0  0
  5 26  1  1  0  0  0
  6  7  1  0  0  0  0
  6 10  1  0  0  0  0
  6 16  1  0  0  0  0
  6 27  1  6  0  0  0
  7  8  1  0  0  0  0
  7 14  1  0  0  0  0
  7 28  1  6  0  0  0
  8  9  2  0  0  0  0
  9 10  1  0  0  0  0
 11 12  1  0  0  0  0
 11 29  1  0  0  0  0
 11 30  1  0  0  0  0
 12 13  2  0  0  0  0
 12 21  1  0  0  0  0
 13 24  1  0  0  0  0
 14 15  2  0  0  0  0
 14 17  1  0  0  0  0
 15 16  1  0  0  0  0
 15 20  1  0  0  0  0
 16 31  1  0  0  0  0
 16 32  1  0  0  0  0
 17 18  2  0  0  0  0
 17 33  1  0  0  0  0
 18 19  1  0  0  0  0
 18 34  1  0  0  0  0
 19 20  2  0  0  0  0
 19 35  1  0  0  0  0
 20 36  1  0  0  0  0
 21 22  2  0  0  0  0
 21 37  1  0  0  0  0
 22 23  1  0  0  0  0
 22 38  1  0  0  0  0
 23 24  2  0  0  0  0
 23 39  1  0  0  0  0
 24 40  1  0  0  0  0
M  END
$$$$
