Title Card Required
 OpenBabel03192317483D

 94 96  0  0  1  0  0  0  0  0999 V2000
   -1.1401    1.9450   -1.6983 N   0  0  0  0  0  0  0  0  0  0  0  0
   -1.0551    2.5533   -0.3791 C   0  0  1  0  0  0  0  0  0  0  0  0
    0.2982    3.2538   -0.2041 C   0  0  2  0  0  0  0  0  0  0  0  0
    1.4797    2.4088   -0.2311 N   0  0  0  0  0  0  0  0  0  0  0  0
    1.4384    1.1433   -0.3807 C   0  0  0  0  0  0  0  0  0  0  0  0
    2.6379    0.3052   -0.3517 C   0  0  0  0  0  0  0  0  0  0  0  0
    3.9154    0.8770   -0.1376 C   0  0  0  0  0  0  0  0  0  0  0  0
    4.0357    2.1951    0.0291 O   0  0  0  0  0  0  0  0  0  0  0  0
    5.0557    0.0401   -0.1027 C   0  0  0  0  0  0  0  0  0  0  0  0
    6.4536    0.6306    0.1239 C   0  0  0  0  0  0  0  0  0  0  0  0
    6.5063    1.3409    1.4880 C   0  0  0  0  0  0  0  0  0  0  0  0
    7.5355   -0.4546    0.1224 C   0  0  0  0  0  0  0  0  0  0  0  0
    6.7877    1.6236   -1.0033 C   0  0  0  0  0  0  0  0  0  0  0  0
    4.8553   -1.3304   -0.2852 C   0  0  0  0  0  0  0  0  0  0  0  0
    3.6019   -1.9264   -0.5015 C   0  0  0  0  0  0  0  0  0  0  0  0
    3.4216   -3.4321   -0.7240 C   0  0  0  0  0  0  0  0  0  0  0  0
    4.7397   -4.1958   -0.5682 C   0  0  0  0  0  0  0  0  0  0  0  0
    2.4169   -3.9903    0.2967 C   0  0  0  0  0  0  0  0  0  0  0  0
    2.8868   -3.6708   -2.1454 C   0  0  0  0  0  0  0  0  0  0  0  0
    2.5022   -1.0763   -0.5301 C   0  0  0  0  0  0  0  0  0  0  0  0
    0.3329    4.0512    1.1060 C   0  0  0  0  0  0  0  0  0  0  0  0
   -0.8114    5.0550    1.2037 C   0  0  0  0  0  0  0  0  0  0  0  0
   -2.1573    4.3537    1.0398 C   0  0  0  0  0  0  0  0  0  0  0  0
   -2.1995    3.5736   -0.2695 C   0  0  0  0  0  0  0  0  0  0  0  0
   -1.9098    0.9618   -1.9223 C   0  0  0  0  0  0  0  0  0  0  0  0
   -2.7269    0.1752   -0.9482 C   0  0  0  0  0  0  0  0  0  0  0  0
   -2.1622   -0.4573    0.1566 C   0  0  0  0  0  0  0  0  0  0  0  0
   -2.9247   -1.2354    1.0294 C   0  0  0  0  0  0  0  0  0  0  0  0
   -4.2854   -1.3692    0.7412 C   0  0  0  0  0  0  0  0  0  0  0  0
   -4.9081   -0.7667   -0.3619 C   0  0  0  0  0  0  0  0  0  0  0  0
   -4.0974    0.0139   -1.2086 C   0  0  0  0  0  0  0  0  0  0  0  0
   -4.5504    0.6740   -2.3059 O   0  0  0  0  0  0  0  0  0  0  0  0
   -2.2600   -1.8598    2.2602 C   0  0  0  0  0  0  0  0  0  0  0  0
   -6.4130   -0.9406   -0.6273 C   0  0  0  0  0  0  0  0  0  0  0  0
   -7.1247    0.4269   -0.5684 C   0  0  0  0  0  0  0  0  0  0  0  0
   -6.6447   -1.6381   -1.9835 C   0  0  0  0  0  0  0  0  0  0  0  0
   -7.0784   -1.8250    0.4344 C   0  0  0  0  0  0  0  0  0  0  0  0
   -1.8184   -0.7290    3.2050 C   0  0  0  0  0  0  0  0  0  0  0  0
   -3.2148   -2.7865    3.0175 C   0  0  0  0  0  0  0  0  0  0  0  0
   -1.0273   -2.6748    1.8364 C   0  0  0  0  0  0  0  0  0  0  0  0
    0.4031    3.9600   -1.0479 H   0  0  0  0  0  0  0  0  0  0  0  0
   -1.1798    1.8295    0.4470 H   0  0  0  0  0  0  0  0  0  0  0  0
    0.4953    0.6043   -0.5535 H   0  0  0  0  0  0  0  0  0  0  0  0
    3.1156    2.5909   -0.0350 H   0  0  0  0  0  0  0  0  0  0  0  0
    6.3014    0.6261    2.2995 H   0  0  0  0  0  0  0  0  0  0  0  0
    7.5109    1.7627    1.6489 H   0  0  0  0  0  0  0  0  0  0  0  0
    5.7739    2.1542    1.5438 H   0  0  0  0  0  0  0  0  0  0  0  0
    7.5783   -0.9895   -0.8383 H   0  0  0  0  0  0  0  0  0  0  0  0
    8.5163    0.0152    0.2863 H   0  0  0  0  0  0  0  0  0  0  0  0
    7.3795   -1.1920    0.9242 H   0  0  0  0  0  0  0  0  0  0  0  0
    6.7772    1.1124   -1.9779 H   0  0  0  0  0  0  0  0  0  0  0  0
    6.0695    2.4508   -1.0344 H   0  0  0  0  0  0  0  0  0  0  0  0
    7.7951    2.0402   -0.8464 H   0  0  0  0  0  0  0  0  0  0  0  0
    5.7299   -1.9752   -0.2598 H   0  0  0  0  0  0  0  0  0  0  0  0
    5.1689   -4.0614    0.4360 H   0  0  0  0  0  0  0  0  0  0  0  0
    4.5641   -5.2710   -0.7194 H   0  0  0  0  0  0  0  0  0  0  0  0
    5.4856   -3.8717   -1.3088 H   0  0  0  0  0  0  0  0  0  0  0  0
    1.4293   -3.5184    0.1917 H   0  0  0  0  0  0  0  0  0  0  0  0
    2.2867   -5.0740    0.1510 H   0  0  0  0  0  0  0  0  0  0  0  0
    2.7689   -3.8179    1.3248 H   0  0  0  0  0  0  0  0  0  0  0  0
    1.9176   -3.1736   -2.2982 H   0  0  0  0  0  0  0  0  0  0  0  0
    3.5896   -3.2776   -2.8947 H   0  0  0  0  0  0  0  0  0  0  0  0
    2.7486   -4.7479   -2.3291 H   0  0  0  0  0  0  0  0  0  0  0  0
    1.4965   -1.4737   -0.7021 H   0  0  0  0  0  0  0  0  0  0  0  0
    0.2735    3.3338    1.9436 H   0  0  0  0  0  0  0  0  0  0  0  0
    1.3096    4.5498    1.1873 H   0  0  0  0  0  0  0  0  0  0  0  0
   -0.7638    5.5897    2.1638 H   0  0  0  0  0  0  0  0  0  0  0  0
   -0.6978    5.8135    0.4106 H   0  0  0  0  0  0  0  0  0  0  0  0
   -2.3128    3.6597    1.8838 H   0  0  0  0  0  0  0  0  0  0  0  0
   -2.9824    5.0807    1.0705 H   0  0  0  0  0  0  0  0  0  0  0  0
   -2.1221    4.2630   -1.1271 H   0  0  0  0  0  0  0  0  0  0  0  0
   -3.1511    3.0309   -0.3830 H   0  0  0  0  0  0  0  0  0  0  0  0
   -2.0035    0.6379   -2.9701 H   0  0  0  0  0  0  0  0  0  0  0  0
   -1.0918   -0.3426    0.3361 H   0  0  0  0  0  0  0  0  0  0  0  0
   -4.8971   -1.9721    1.4069 H   0  0  0  0  0  0  0  0  0  0  0  0
   -5.4807    0.4868   -2.4540 H   0  0  0  0  0  0  0  0  0  0  0  0
   -6.7377    1.1709   -1.2790 H   0  0  0  0  0  0  0  0  0  0  0  0
   -8.1996    0.3020   -0.7681 H   0  0  0  0  0  0  0  0  0  0  0  0
   -7.0105    0.8625    0.4347 H   0  0  0  0  0  0  0  0  0  0  0  0
   -6.2059   -2.6459   -1.9634 H   0  0  0  0  0  0  0  0  0  0  0  0
   -7.7235   -1.7366   -2.1769 H   0  0  0  0  0  0  0  0  0  0  0  0
   -6.2001   -1.1230   -2.8474 H   0  0  0  0  0  0  0  0  0  0  0  0
   -6.6471   -2.8360    0.4495 H   0  0  0  0  0  0  0  0  0  0  0  0
   -6.9855   -1.3908    1.4400 H   0  0  0  0  0  0  0  0  0  0  0  0
   -8.1501   -1.9199    0.2072 H   0  0  0  0  0  0  0  0  0  0  0  0
   -2.6835   -0.1263    3.5196 H   0  0  0  0  0  0  0  0  0  0  0  0
   -1.3370   -1.1437    4.1040 H   0  0  0  0  0  0  0  0  0  0  0  0
   -1.0976   -0.0574    2.7141 H   0  0  0  0  0  0  0  0  0  0  0  0
   -3.5734   -3.6057    2.3761 H   0  0  0  0  0  0  0  0  0  0  0  0
   -2.6935   -3.2337    3.8763 H   0  0  0  0  0  0  0  0  0  0  0  0
   -4.0880   -2.2422    3.4063 H   0  0  0  0  0  0  0  0  0  0  0  0
   -1.3061   -3.4730    1.1324 H   0  0  0  0  0  0  0  0  0  0  0  0
   -0.2649   -2.0440    1.3561 H   0  0  0  0  0  0  0  0  0  0  0  0
   -0.5576   -3.1386    2.7172 H   0  0  0  0  0  0  0  0  0  0  0  0
  1  2  1  0  0  0  0
  1 25  2  0  0  0  0
  2  3  1  0  0  0  0
  2 24  1  0  0  0  0
  2 42  1  1  0  0  0
  3  4  1  0  0  0  0
  3 21  1  0  0  0  0
  3 41  1  6  0  0  0
  4  5  2  0  0  0  0
  5  6  1  0  0  0  0
  5 43  1  0  0  0  0
  6  7  2  0  0  0  0
  6 20  1  0  0  0  0
  7  8  1  0  0  0  0
  7  9  1  0  0  0  0
  8 44  1  0  0  0  0
  9 10  1  0  0  0  0
  9 14  2  0  0  0  0
 10 11  1  0  0  0  0
 10 12  1  0  0  0  0
 10 13  1  0  0  0  0
 11 45  1  0  0  0  0
 11 46  1  0  0  0  0
 11 47  1  0  0  0  0
 12 48  1  0  0  0  0
 12 49  1  0  0  0  0
 12 50  1  0  0  0  0
 13 51  1  0  0  0  0
 13 52  1  0  0  0  0
 13 53  1  0  0  0  0
 14 15  1  0  0  0  0
 14 54  1  0  0  0  0
 15 16  1  0  0  0  0
 15 20  2  0  0  0  0
 16 17  1  0  0  0  0
 16 18  1  0  0  0  0
 16 19  1  0  0  0  0
 17 55  1  0  0  0  0
 17 56  1  0  0  0  0
 17 57  1  0  0  0  0
 18 58  1  0  0  0  0
 18 59  1  0  0  0  0
 18 60  1  0  0  0  0
 19 61  1  0  0  0  0
 19 62  1  0  0  0  0
 19 63  1  0  0  0  0
 20 64  1  0  0  0  0
 21 22  1  0  0  0  0
 21 65  1  0  0  0  0
 21 66  1  0  0  0  0
 22 23  1  0  0  0  0
 22 67  1  0  0  0  0
 22 68  1  0  0  0  0
 23 24  1  0  0  0  0
 23 69  1  0  0  0  0
 23 70  1  0  0  0  0
 24 71  1  0  0  0  0
 24 72  1  0  0  0  0
 25 26  1  0  0  0  0
 25 73  1  0  0  0  0
 26 27  2  0  0  0  0
 26 31  1  0  0  0  0
 27 28  1  0  0  0  0
 27 74  1  0  0  0  0
 28 29  2  0  0  0  0
 28 33  1  0  0  0  0
 29 30  1  0  0  0  0
 29 75  1  0  0  0  0
 30 31  2  0  0  0  0
 30 34  1  0  0  0  0
 31 32  1  0  0  0  0
 32 76  1  0  0  0  0
 33 38  1  0  0  0  0
 33 39  1  0  0  0  0
 33 40  1  0  0  0  0
 34 35  1  0  0  0  0
 34 36  1  0  0  0  0
 34 37  1  0  0  0  0
 35 77  1  0  0  0  0
 35 78  1  0  0  0  0
 35 79  1  0  0  0  0
 36 80  1  0  0  0  0
 36 81  1  0  0  0  0
 36 82  1  0  0  0  0
 37 83  1  0  0  0  0
 37 84  1  0  0  0  0
 37 85  1  0  0  0  0
 38 86  1  0  0  0  0
 38 87  1  0  0  0  0
 38 88  1  0  0  0  0
 39 89  1  0  0  0  0
 39 90  1  0  0  0  0
 39 91  1  0  0  0  0
 40 92  1  0  0  0  0
 40 93  1  0  0  0  0
 40 94  1  0  0  0  0
M  END
$$$$
