Title Card Required
 OpenBabel03192317453D

 56 61  0  0  1  0  0  0  0  0999 V2000
   -1.1519    1.2790    0.1161 C   0  0  0  0  0  0  0  0  0  0  0  0
   -0.5833    0.0292    0.0399 N   0  0  0  0  0  0  0  0  0  0  0  0
    0.7773    0.0429   -0.2254 C   0  0  0  0  0  0  0  0  0  0  0  0
    1.1336    1.4777   -0.3327 C   0  0  0  0  0  0  0  0  0  0  0  0
    2.3398    2.1354   -0.5828 C   0  0  0  0  0  0  0  0  0  0  0  0
    2.3323    3.5304   -0.6171 C   0  0  0  0  0  0  0  0  0  0  0  0
    1.1582    4.2612   -0.4081 C   0  0  0  0  0  0  0  0  0  0  0  0
   -0.0478    3.6089   -0.1589 C   0  0  0  0  0  0  0  0  0  0  0  0
   -0.0450    2.2186   -0.1253 C   0  0  0  0  0  0  0  0  0  0  0  0
    1.4680   -1.1230   -0.3295 C   0  0  0  0  0  3  0  0  0  0  0  0
    3.1966   -2.6655   -0.6681 O   0  0  0  0  0  0  0  0  0  0  0  0
    2.8766   -1.3451   -0.5905 C   0  0  0  0  0  0  0  0  0  0  0  0
    3.8276   -0.5098   -0.7561 N   0  0  0  0  0  0  0  0  0  0  0  0
    5.0389   -1.2693   -1.0365 C   0  0  2  0  0  0  0  0  0  0  0  0
    4.6143   -2.7387   -0.7689 C   0  0  0  0  0  0  0  0  0  0  0  0
    6.2311   -0.8439   -0.2076 C   0  0  0  0  0  0  0  0  0  0  0  0
    6.0642   -0.1538    0.9952 C   0  0  0  0  0  0  0  0  0  0  0  0
    7.1712    0.1770    1.7765 C   0  0  0  0  0  0  0  0  0  0  0  0
    8.4544   -0.1803    1.3651 C   0  0  0  0  0  0  0  0  0  0  0  0
    8.6278   -0.8665    0.1633 C   0  0  0  0  0  0  0  0  0  0  0  0
    7.5216   -1.1922   -0.6191 C   0  0  0  0  0  0  0  0  0  0  0  0
   -2.4493    1.5886    0.3644 C   0  0  0  0  0  3  0  0  0  0  0  0
   -3.1334   -0.6944    0.6560 O   0  0  0  0  0  0  0  0  0  0  0  0
   -3.5000    0.6269    0.6221 C   0  0  0  0  0  0  0  0  0  0  0  0
   -4.7259    0.8912    0.8428 N   0  0  0  0  0  0  0  0  0  0  0  0
   -5.3946   -0.3664    1.1460 C   0  0  2  0  0  0  0  0  0  0  0  0
   -4.3437   -1.4428    0.7706 C   0  0  0  0  0  0  0  0  0  0  0  0
   -6.7114   -0.5636    0.4293 C   0  0  0  0  0  0  0  0  0  0  0  0
   -7.0960    0.2590   -0.6307 C   0  0  0  0  0  0  0  0  0  0  0  0
   -8.2929    0.0183   -1.3065 C   0  0  0  0  0  0  0  0  0  0  0  0
   -9.1133   -1.0438   -0.9305 C   0  0  0  0  0  0  0  0  0  0  0  0
   -8.7359   -1.8655    0.1320 C   0  0  0  0  0  0  0  0  0  0  0  0
   -7.5435   -1.6225    0.8090 C   0  0  0  0  0  0  0  0  0  0  0  0
   -1.1323   -0.8108    0.1788 H   0  0  0  0  0  0  0  0  0  0  0  0
    3.2502    1.5600   -0.7427 H   0  0  0  0  0  0  0  0  0  0  0  0
    3.2658    4.0608   -0.8106 H   0  0  0  0  0  0  0  0  0  0  0  0
    1.1865    5.3513   -0.4394 H   0  0  0  0  0  0  0  0  0  0  0  0
   -0.9672    4.1724    0.0067 H   0  0  0  0  0  0  0  0  0  0  0  0
    0.9036   -2.0475   -0.2006 H   0  0  0  0  0  0  0  0  0  0  0  0
    5.3002   -1.1313   -2.1006 H   0  0  0  0  0  0  0  0  0  0  0  0
    4.8830   -3.4317   -1.5760 H   0  0  0  0  0  0  0  0  0  0  0  0
    5.0233   -3.1112    0.1834 H   0  0  0  0  0  0  0  0  0  0  0  0
    5.0574    0.1315    1.3049 H   0  0  0  0  0  0  0  0  0  0  0  0
    7.0296    0.7192    2.7129 H   0  0  0  0  0  0  0  0  0  0  0  0
    9.3195    0.0799    1.9771 H   0  0  0  0  0  0  0  0  0  0  0  0
    9.6295   -1.1436   -0.1694 H   0  0  0  0  0  0  0  0  0  0  0  0
    7.6622   -1.7187   -1.5669 H   0  0  0  0  0  0  0  0  0  0  0  0
   -2.7522    2.6329    0.3894 H   0  0  0  0  0  0  0  0  0  0  0  0
   -5.5953   -0.3932    2.2324 H   0  0  0  0  0  0  0  0  0  0  0  0
   -4.2112   -2.2236    1.5296 H   0  0  0  0  0  0  0  0  0  0  0  0
   -4.5716   -1.9074   -0.2016 H   0  0  0  0  0  0  0  0  0  0  0  0
   -6.4512    1.0940   -0.9081 H   0  0  0  0  0  0  0  0  0  0  0  0
   -8.5876    0.6684   -2.1320 H   0  0  0  0  0  0  0  0  0  0  0  0
  -10.0488   -1.2293   -1.4604 H   0  0  0  0  0  0  0  0  0  0  0  0
   -9.3760   -2.6948    0.4376 H   0  0  0  0  0  0  0  0  0  0  0  0
   -7.2563   -2.2610    1.6491 H   0  0  0  0  0  0  0  0  0  0  0  0
  1  2  1  0  0  0  0
  1  9  2  0  0  0  0
  1 22  1  0  0  0  0
  2  3  1  0  0  0  0
  2 34  1  0  0  0  0
  3  4  2  0  0  0  0
  3 10  1  0  0  0  0
  4  5  1  0  0  0  0
  4  9  1  0  0  0  0
  5  6  2  0  0  0  0
  5 35  1  0  0  0  0
  6  7  1  0  0  0  0
  6 36  1  0  0  0  0
  7  8  2  0  0  0  0
  7 37  1  0  0  0  0
  8  9  1  0  0  0  0
  8 38  1  0  0  0  0
 10 12  1  0  0  0  0
 10 39  1  0  0  0  0
 11 12  1  0  0  0  0
 11 15  1  0  0  0  0
 12 13  2  0  0  0  0
 13 14  1  0  0  0  0
 14 15  1  0  0  0  0
 14 16  1  0  0  0  0
 14 40  1  6  0  0  0
 15 41  1  0  0  0  0
 15 42  1  0  0  0  0
 16 17  2  0  0  0  0
 16 21  1  0  0  0  0
 17 18  1  0  0  0  0
 17 43  1  0  0  0  0
 18 19  2  0  0  0  0
 18 44  1  0  0  0  0
 19 20  1  0  0  0  0
 19 45  1  0  0  0  0
 20 21  2  0  0  0  0
 20 46  1  0  0  0  0
 21 47  1  0  0  0  0
 22 24  1  0  0  0  0
 22 48  1  0  0  0  0
 23 24  1  0  0  0  0
 23 27  1  0  0  0  0
 24 25  2  0  0  0  0
 25 26  1  0  0  0  0
 26 27  1  0  0  0  0
 26 28  1  0  0  0  0
 26 49  1  1  0  0  0
 27 50  1  0  0  0  0
 27 51  1  0  0  0  0
 28 29  2  0  0  0  0
 28 33  1  0  0  0  0
 29 30  1  0  0  0  0
 29 52  1  0  0  0  0
 30 31  2  0  0  0  0
 30 53  1  0  0  0  0
 31 32  1  0  0  0  0
 31 54  1  0  0  0  0
 32 33  2  0  0  0  0
 32 55  1  0  0  0  0
 33 56  1  0  0  0  0
M  END
$$$$
