Title Card Required
 OpenBabel03192317573D

 22 23  0  0  1  0  0  0  0  0999 V2000
   -1.2333    0.6793    0.6123 C   0  0  1  0  0  0  0  0  0  0  0  0
   -1.8512   -0.7050    0.2412 C   0  0  2  0  0  0  0  0  0  0  0  0
   -0.7123   -1.7102    0.4599 C   0  0  0  0  0  0  0  0  0  0  0  0
    0.5272   -0.8889    0.1985 C   0  0  0  0  0  0  0  0  0  0  0  0
    1.8252   -1.3038   -0.0815 C   0  0  0  0  0  0  0  0  0  0  0  0
    2.8217   -0.3421   -0.2705 C   0  0  0  0  0  0  0  0  0  0  0  0
    2.5233    1.0178   -0.1757 C   0  0  0  0  0  0  0  0  0  0  0  0
    1.2203    1.4344    0.1082 C   0  0  0  0  0  0  0  0  0  0  0  0
    0.2310    0.4743    0.2890 C   0  0  0  0  0  0  0  0  0  0  0  0
   -2.1946   -0.6993   -1.1105 O   0  0  0  0  0  0  0  0  0  0  0  0
   -1.8673    1.7518   -0.1428 N   0  0  0  0  0  0  0  0  0  0  0  0
   -1.3370    0.8391    1.7014 H   0  0  0  0  0  0  0  0  0  0  0  0
   -2.7291   -0.9316    0.8754 H   0  0  0  0  0  0  0  0  0  0  0  0
   -0.7120   -2.0873    1.4961 H   0  0  0  0  0  0  0  0  0  0  0  0
   -0.8211   -2.5681   -0.2176 H   0  0  0  0  0  0  0  0  0  0  0  0
    2.0620   -2.3666   -0.1616 H   0  0  0  0  0  0  0  0  0  0  0  0
    3.8416   -0.6564   -0.4982 H   0  0  0  0  0  0  0  0  0  0  0  0
    3.3105    1.7586   -0.3244 H   0  0  0  0  0  0  0  0  0  0  0  0
    0.9913    2.5006    0.1891 H   0  0  0  0  0  0  0  0  0  0  0  0
   -2.4348    0.2254   -1.2989 H   0  0  0  0  0  0  0  0  0  0  0  0
   -1.1838    2.3512   -0.5966 H   0  0  0  0  0  0  0  0  0  0  0  0
   -2.4706    2.3326    0.4305 H   0  0  0  0  0  0  0  0  0  0  0  0
  1  2  1  0  0  0  0
  1  9  1  0  0  0  0
  1 11  1  0  0  0  0
  1 12  1  1  0  0  0
  2  3  1  0  0  0  0
  2 10  1  0  0  0  0
  2 13  1  1  0  0  0
  3  4  1  0  0  0  0
  3 14  1  0  0  0  0
  3 15  1  0  0  0  0
  4  5  2  0  0  0  0
  4  9  1  0  0  0  0
  5  6  1  0  0  0  0
  5 16  1  0  0  0  0
  6  7  2  0  0  0  0
  6 17  1  0  0  0  0
  7  8  1  0  0  0  0
  7 18  1  0  0  0  0
  8  9  2  0  0  0  0
  8 19  1  0  0  0  0
 10 20  1  0  0  0  0
 11 21  1  0  0  0  0
 11 22  1  0  0  0  0
M  END
$$$$
