Title Card Required
 OpenBabel03192317533D

 60 63  0  0  1  0  0  0  0  0999 V2000
    0.7374   -3.3988    0.0637 C   0  0  0  0  0  0  0  0  0  0  0  0
    2.0833   -3.0167    0.0745 C   0  0  0  0  0  0  0  0  0  0  0  0
    3.0970   -3.9600    0.2254 C   0  0  0  0  0  0  0  0  0  0  0  0
    2.7322   -5.2975    0.3645 C   0  0  0  0  0  0  0  0  0  0  0  0
    1.3845   -5.6807    0.3524 C   0  0  0  0  0  0  0  0  0  0  0  0
    0.3718   -4.7356    0.2018 C   0  0  0  0  0  0  0  0  0  0  0  0
   -0.0790   -2.1823   -0.1148 C   0  0  0  0  0  0  0  0  0  0  0  0
    0.8243   -1.1353   -0.1914 N   0  0  0  0  0  0  0  0  0  0  0  0
    2.1340   -1.5542   -0.0949 C   0  0  0  0  0  0  0  0  0  0  0  0
   -1.4336   -2.1626   -0.1918 C   0  0  0  0  0  3  0  0  0  0  0  0
    3.2553   -0.7852   -0.1490 C   0  0  0  0  0  3  0  0  0  0  0  0
   -2.2837   -1.0059   -0.3908 C   0  0  0  0  0  0  0  0  0  0  0  0
    3.2321    0.6526   -0.3139 C   0  0  0  0  0  0  0  0  0  0  0  0
   -1.6794    0.2101   -0.5236 O   0  0  0  0  0  0  0  0  0  0  0  0
   -2.7340    1.1764   -0.5625 C   0  0  0  0  0  0  0  0  0  0  0  0
   -4.0106    0.3218   -0.7248 C   0  0  1  0  0  0  0  0  0  0  0  0
   -3.5547   -1.0387   -0.4685 N   0  0  0  0  0  0  0  0  0  0  0  0
    2.2052    1.4167   -0.3676 N   0  0  0  0  0  0  0  0  0  0  0  0
    2.6924    2.7774   -0.5889 C   0  0  2  0  0  0  0  0  0  0  0  0
    4.2226    2.6468   -0.4178 C   0  0  0  0  0  0  0  0  0  0  0  0
    4.4486    1.2398   -0.4312 O   0  0  0  0  0  0  0  0  0  0  0  0
   -5.2049    0.7271    0.1652 C   0  0  0  0  0  0  0  0  0  0  0  0
    2.0133    3.8201    0.3233 C   0  0  0  0  0  0  0  0  0  0  0  0
   -5.5542    2.1924   -0.1102 C   0  0  0  0  0  0  0  0  0  0  0  0
   -6.3922   -0.1662   -0.2056 C   0  0  0  0  0  0  0  0  0  0  0  0
    2.1420    3.4244    1.7962 C   0  0  0  0  0  0  0  0  0  0  0  0
    2.6587    5.1871    0.0796 C   0  0  0  0  0  0  0  0  0  0  0  0
   -4.8711    0.5284    1.6457 C   0  0  0  0  0  0  0  0  0  0  0  0
    0.5312    3.8721   -0.0496 C   0  0  0  0  0  0  0  0  0  0  0  0
    4.1469   -3.6632    0.2349 H   0  0  0  0  0  0  0  0  0  0  0  0
    3.5049   -6.0579    0.4849 H   0  0  0  0  0  0  0  0  0  0  0  0
    1.1262   -6.7346    0.4632 H   0  0  0  0  0  0  0  0  0  0  0  0
   -0.6764   -5.0385    0.1928 H   0  0  0  0  0  0  0  0  0  0  0  0
    0.5816   -0.1524   -0.3204 H   0  0  0  0  0  0  0  0  0  0  0  0
   -1.9687   -3.1067   -0.1126 H   0  0  0  0  0  0  0  0  0  0  0  0
    4.2311   -1.2592   -0.0703 H   0  0  0  0  0  0  0  0  0  0  0  0
   -2.5526    1.8692   -1.3932 H   0  0  0  0  0  0  0  0  0  0  0  0
   -2.7208    1.7428    0.3815 H   0  0  0  0  0  0  0  0  0  0  0  0
   -4.3651    0.3695   -1.7719 H   0  0  0  0  0  0  0  0  0  0  0  0
    2.4521    3.0602   -1.6315 H   0  0  0  0  0  0  0  0  0  0  0  0
    4.8007    3.1133   -1.2252 H   0  0  0  0  0  0  0  0  0  0  0  0
    4.5753    3.0456    0.5467 H   0  0  0  0  0  0  0  0  0  0  0  0
   -5.7630    2.3545   -1.1796 H   0  0  0  0  0  0  0  0  0  0  0  0
   -6.4506    2.4859    0.4565 H   0  0  0  0  0  0  0  0  0  0  0  0
   -4.7383    2.8702    0.1865 H   0  0  0  0  0  0  0  0  0  0  0  0
   -6.1230   -1.2237   -0.0801 H   0  0  0  0  0  0  0  0  0  0  0  0
   -7.2613    0.0601    0.4306 H   0  0  0  0  0  0  0  0  0  0  0  0
   -6.6873   -0.0096   -1.2549 H   0  0  0  0  0  0  0  0  0  0  0  0
    3.1913    3.3765    2.1248 H   0  0  0  0  0  0  0  0  0  0  0  0
    1.6322    4.1642    2.4316 H   0  0  0  0  0  0  0  0  0  0  0  0
    1.6838    2.4401    1.9694 H   0  0  0  0  0  0  0  0  0  0  0  0
    2.6060    5.4649   -0.9851 H   0  0  0  0  0  0  0  0  0  0  0  0
    2.1380    5.9657    0.6572 H   0  0  0  0  0  0  0  0  0  0  0  0
    3.7165    5.1995    0.3856 H   0  0  0  0  0  0  0  0  0  0  0  0
   -4.6152   -0.5225    1.8422 H   0  0  0  0  0  0  0  0  0  0  0  0
   -4.0248    1.1537    1.9690 H   0  0  0  0  0  0  0  0  0  0  0  0
   -5.7374    0.7993    2.2680 H   0  0  0  0  0  0  0  0  0  0  0  0
    0.3981    4.2103   -1.0894 H   0  0  0  0  0  0  0  0  0  0  0  0
    0.0906    2.8713    0.0458 H   0  0  0  0  0  0  0  0  0  0  0  0
   -0.0134    4.5665    0.6086 H   0  0  0  0  0  0  0  0  0  0  0  0
  1  2  1  0  0  0  0
  1  6  1  0  0  0  0
  1  7  2  0  0  0  0
  2  3  1  0  0  0  0
  2  9  2  0  0  0  0
  3  4  2  0  0  0  0
  3 30  1  0  0  0  0
  4  5  1  0  0  0  0
  4 31  1  0  0  0  0
  5  6  2  0  0  0  0
  5 32  1  0  0  0  0
  6 33  1  0  0  0  0
  7  8  1  0  0  0  0
  7 10  1  0  0  0  0
  8  9  1  0  0  0  0
  8 34  1  0  0  0  0
  9 11  1  0  0  0  0
 10 12  1  0  0  0  0
 10 35  1  0  0  0  0
 11 13  1  0  0  0  0
 11 36  1  0  0  0  0
 12 14  1  0  0  0  0
 12 17  2  0  0  0  0
 13 18  2  0  0  0  0
 13 21  1  0  0  0  0
 14 15  1  0  0  0  0
 15 16  1  0  0  0  0
 15 37  1  0  0  0  0
 15 38  1  0  0  0  0
 16 17  1  0  0  0  0
 16 22  1  0  0  0  0
 16 39  1  6  0  0  0
 18 19  1  0  0  0  0
 19 20  1  0  0  0  0
 19 23  1  0  0  0  0
 19 40  1  6  0  0  0
 20 21  1  0  0  0  0
 20 41  1  0  0  0  0
 20 42  1  0  0  0  0
 22 24  1  0  0  0  0
 22 25  1  0  0  0  0
 22 28  1  0  0  0  0
 23 26  1  0  0  0  0
 23 27  1  0  0  0  0
 23 29  1  0  0  0  0
 24 43  1  0  0  0  0
 24 44  1  0  0  0  0
 24 45  1  0  0  0  0
 25 46  1  0  0  0  0
 25 47  1  0  0  0  0
 25 48  1  0  0  0  0
 26 49  1  0  0  0  0
 26 50  1  0  0  0  0
 26 51  1  0  0  0  0
 27 52  1  0  0  0  0
 27 53  1  0  0  0  0
 27 54  1  0  0  0  0
 28 55  1  0  0  0  0
 28 56  1  0  0  0  0
 28 57  1  0  0  0  0
 29 58  1  0  0  0  0
 29 59  1  0  0  0  0
 29 60  1  0  0  0  0
M  END
$$$$
