Title Card Required
 OpenBabel03192317533D

 59 66  0  0  1  0  0  0  0  0999 V2000
   -1.7955    0.4086   -0.0438 N   0  0  0  0  0  0  0  0  0  0  0  0
   -1.8438   -0.8901    0.5525 C   0  0  0  0  0  0  0  0  0  0  0  0
   -2.7396   -1.8494    0.0379 C   0  0  0  0  0  0  0  0  0  0  0  0
   -3.6543   -1.5724   -1.0759 C   0  0  0  0  0  0  0  0  0  0  0  0
   -4.2573   -0.4058   -1.3725 C   0  0  0  0  0  0  0  0  0  0  0  0
   -4.1493    0.8461   -0.6178 C   0  0  0  0  0  0  0  0  0  0  0  0
   -2.9804    1.2033    0.0795 C   0  0  0  0  0  0  0  0  0  0  0  0
   -2.7276   -3.1387    0.5909 C   0  0  0  0  0  0  0  0  0  0  0  0
   -1.8689   -3.4735    1.6302 C   0  0  0  0  0  0  0  0  0  0  0  0
   -0.9983   -2.5097    2.1395 C   0  0  0  0  0  0  0  0  0  0  0  0
   -0.9939   -1.2214    1.6126 C   0  0  0  0  0  0  0  0  0  0  0  0
   -2.9478    2.3733    0.8433 C   0  0  0  0  0  0  0  0  0  0  0  0
   -4.0509    3.2221    0.8872 C   0  0  0  0  0  0  0  0  0  0  0  0
   -5.2038    2.8943    0.1744 C   0  0  0  0  0  0  0  0  0  0  0  0
   -5.2472    1.7176   -0.5661 C   0  0  0  0  0  0  0  0  0  0  0  0
    0.3890    0.1696   -1.6002 O   0  0  0  0  0  0  0  0  0  0  0  0
   -0.4562    1.2587   -0.6764 P   0  0  2  0  0  0  0  0  0  0  0  0
    0.5272    1.2367    0.7068 O   0  0  0  0  0  0  0  0  0  0  0  0
    1.7213    1.8987    0.5417 C   0  0  0  0  0  0  0  0  0  0  0  0
    2.8469    1.2075    0.1040 C   0  0  0  0  0  0  0  0  0  0  0  0
    3.0766   -0.2794   -0.0687 C   0  0  1  0  0  0  0  0  0  0  0  0
    1.9660   -1.2455   -0.4383 C   0  0  0  0  0  0  0  0  0  0  0  0
    0.8118   -1.0772   -1.1989 C   0  0  0  0  0  0  0  0  0  0  0  0
    4.2040   -0.2626   -1.1386 C   0  0  0  0  0  0  0  0  0  0  0  0
    5.0449    0.9783   -0.7936 C   0  0  0  0  0  0  0  0  0  0  0  0
    4.0107    1.9182   -0.2166 C   0  0  0  0  0  0  0  0  0  0  0  0
    4.0840    3.2958   -0.0354 C   0  0  0  0  0  0  0  0  0  0  0  0
    2.9641    3.9722    0.4535 C   0  0  0  0  0  0  0  0  0  0  0  0
    1.7826    3.2836    0.7221 C   0  0  0  0  0  0  0  0  0  0  0  0
    3.5984   -0.9397    1.2371 C   0  0  0  0  0  0  0  0  0  0  0  0
    3.4685   -2.4488    0.9783 C   0  0  0  0  0  0  0  0  0  0  0  0
    2.2633   -2.5200    0.0680 C   0  0  0  0  0  0  0  0  0  0  0  0
    1.4869   -3.6271   -0.2536 C   0  0  0  0  0  0  0  0  0  0  0  0
    0.3814   -3.4546   -1.0902 C   0  0  0  0  0  0  0  0  0  0  0  0
    0.0385   -2.1869   -1.5494 C   0  0  0  0  0  0  0  0  0  0  0  0
   -3.9330   -2.4453   -1.6743 H   0  0  0  0  0  0  0  0  0  0  0  0
   -4.9827   -0.4038   -2.1907 H   0  0  0  0  0  0  0  0  0  0  0  0
   -3.4109   -3.8875    0.1838 H   0  0  0  0  0  0  0  0  0  0  0  0
   -1.8743   -4.4842    2.0403 H   0  0  0  0  0  0  0  0  0  0  0  0
   -0.3140   -2.7608    2.9517 H   0  0  0  0  0  0  0  0  0  0  0  0
   -0.3123   -0.4613    1.9919 H   0  0  0  0  0  0  0  0  0  0  0  0
   -2.0344    2.6100    1.3930 H   0  0  0  0  0  0  0  0  0  0  0  0
   -4.0077    4.1402    1.4745 H   0  0  0  0  0  0  0  0  0  0  0  0
   -6.0709    3.5556    0.1962 H   0  0  0  0  0  0  0  0  0  0  0  0
   -6.1501    1.4549   -1.1213 H   0  0  0  0  0  0  0  0  0  0  0  0
    3.7382   -0.1310   -2.1272 H   0  0  0  0  0  0  0  0  0  0  0  0
    4.7789   -1.1996   -1.1553 H   0  0  0  0  0  0  0  0  0  0  0  0
    5.5585    1.4065   -1.6659 H   0  0  0  0  0  0  0  0  0  0  0  0
    5.8197    0.7448   -0.0447 H   0  0  0  0  0  0  0  0  0  0  0  0
    4.9933    3.8428   -0.2906 H   0  0  0  0  0  0  0  0  0  0  0  0
    2.9985    5.0534    0.5954 H   0  0  0  0  0  0  0  0  0  0  0  0
    0.8852    3.8080    1.0540 H   0  0  0  0  0  0  0  0  0  0  0  0
    4.6184   -0.6172    1.4912 H   0  0  0  0  0  0  0  0  0  0  0  0
    2.9319   -0.6447    2.0625 H   0  0  0  0  0  0  0  0  0  0  0  0
    4.3642   -2.8477    0.4736 H   0  0  0  0  0  0  0  0  0  0  0  0
    3.3315   -3.0333    1.8993 H   0  0  0  0  0  0  0  0  0  0  0  0
    1.7287   -4.6118    0.1508 H   0  0  0  0  0  0  0  0  0  0  0  0
   -0.2422   -4.3092   -1.3576 H   0  0  0  0  0  0  0  0  0  0  0  0
   -0.8533   -2.0186   -2.1547 H   0  0  0  0  0  0  0  0  0  0  0  0
  1  2  1  0  0  0  0
  1  7  1  0  0  0  0
  2  3  2  0  0  0  0
  2 11  1  0  0  0  0
  3  4  1  0  0  0  0
  3  8  1  0  0  0  0
  4  5  2  0  0  0  0
  4 36  1  0  0  0  0
  5  6  1  0  0  0  0
  5 37  1  0  0  0  0
  6  7  2  0  0  0  0
  6 15  1  0  0  0  0
  7 12  1  0  0  0  0
  8  9  2  0  0  0  0
  8 38  1  0  0  0  0
  9 10  1  0  0  0  0
  9 39  1  0  0  0  0
 10 11  2  0  0  0  0
 10 40  1  0  0  0  0
 11 41  1  0  0  0  0
 12 13  2  0  0  0  0
 12 42  1  0  0  0  0
 13 14  1  0  0  0  0
 13 43  1  0  0  0  0
 14 15  2  0  0  0  0
 14 44  1  0  0  0  0
 15 45  1  0  0  0  0
 16 17  1  0  0  0  0
 16 23  1  0  0  0  0
 17  1  1  1  0  0  0
 17 18  1  0  0  0  0
 18 19  1  0  0  0  0
 19 20  2  0  0  0  0
 19 29  1  0  0  0  0
 20 26  1  0  0  0  0
 21 20  1  1  0  0  0
 21 22  1  0  0  0  0
 21 24  1  0  0  0  0
 21 30  1  0  0  0  0
 22 23  2  0  0  0  0
 22 32  1  0  0  0  0
 23 35  1  0  0  0  0
 24 25  1  0  0  0  0
 24 46  1  0  0  0  0
 24 47  1  0  0  0  0
 25 26  1  0  0  0  0
 25 48  1  0  0  0  0
 25 49  1  0  0  0  0
 26 27  2  0  0  0  0
 27 28  1  0  0  0  0
 27 50  1  0  0  0  0
 28 29  2  0  0  0  0
 28 51  1  0  0  0  0
 29 52  1  0  0  0  0
 30 31  1  0  0  0  0
 30 53  1  0  0  0  0
 30 54  1  0  0  0  0
 31 32  1  0  0  0  0
 31 55  1  0  0  0  0
 31 56  1  0  0  0  0
 32 33  2  0  0  0  0
 33 34  1  0  0  0  0
 33 57  1  0  0  0  0
 34 35  2  0  0  0  0
 34 58  1  0  0  0  0
 35 59  1  0  0  0  0
M  END
$$$$
