Title Card Required
 OpenBabel03192317443D

 62 69  0  0  0  0  0  0  0  0999 V2000
    2.1832   -0.9852   -0.5421 N   0  0  0  0  0  0  0  0  0  0  0  0
    2.9863    0.0491   -1.0891 C   0  0  0  0  0  0  0  0  0  0  0  0
    3.4032    1.1631   -0.3314 C   0  0  0  0  0  0  0  0  0  0  0  0
    3.0711    1.4228    1.1279 C   0  0  0  0  0  0  0  0  0  0  0  0
    2.0101    0.5445    1.7952 C   0  0  0  0  0  0  0  0  0  0  0  0
    2.4459   -0.8896    1.8775 C   0  0  0  0  0  0  0  0  0  0  0  0
    2.5459   -1.6181    0.6841 C   0  0  0  0  0  0  0  0  0  0  0  0
    4.1571    2.1472   -0.9847 C   0  0  0  0  0  0  0  0  0  0  0  0
    4.4638    2.0821   -2.3396 C   0  0  0  0  0  0  0  0  0  0  0  0
    4.0305    0.9854   -3.0826 C   0  0  0  0  0  0  0  0  0  0  0  0
    3.3193   -0.0272   -2.4512 C   0  0  0  0  0  0  0  0  0  0  0  0
    2.9621   -2.9500    0.6956 C   0  0  0  0  0  0  0  0  0  0  0  0
    3.2823   -3.5706    1.9022 C   0  0  0  0  0  0  0  0  0  0  0  0
    3.2023   -2.8508    3.0923 C   0  0  0  0  0  0  0  0  0  0  0  0
    2.7929   -1.5172    3.0743 C   0  0  0  0  0  0  0  0  0  0  0  0
    0.1429   -0.2145   -2.0105 O   0  0  0  0  0  0  0  0  0  0  0  0
    0.8281   -1.6150   -1.4329 P   0  0  0  0  0  0  0  0  0  0  0  0
   -0.0949   -1.8403   -0.0498 O   0  0  0  0  0  0  0  0  0  0  0  0
   -1.4580   -1.8003   -0.1754 C   0  0  0  0  0  0  0  0  0  0  0  0
   -2.0877   -0.5769   -0.3153 C   0  0  0  0  0  0  0  0  0  0  0  0
   -1.2704    0.6684   -0.2929 C   0  0  0  0  0  0  0  0  0  0  0  0
   -0.2168    0.8180   -1.1778 C   0  0  0  0  0  0  0  0  0  0  0  0
   -2.1753   -3.0196   -0.1359 C   0  0  0  0  0  0  0  0  0  0  0  0
   -3.5396   -3.0062   -0.2519 C   0  0  0  0  0  0  0  0  0  0  0  0
   -4.2384   -1.7843   -0.4515 C   0  0  0  0  0  0  0  0  0  0  0  0
   -5.6496   -1.7665   -0.6216 C   0  0  0  0  0  0  0  0  0  0  0  0
   -6.3172   -0.5906   -0.8560 C   0  0  0  0  0  0  0  0  0  0  0  0
   -5.5938    0.6234   -0.9414 C   0  0  0  0  0  0  0  0  0  0  0  0
   -4.2306    0.6410   -0.7705 C   0  0  0  0  0  0  0  0  0  0  0  0
   -3.5107   -0.5581   -0.5034 C   0  0  0  0  0  0  0  0  0  0  0  0
    0.5157    2.0259   -1.2807 C   0  0  0  0  0  0  0  0  0  0  0  0
    0.2391    3.0613   -0.4284 C   0  0  0  0  0  0  0  0  0  0  0  0
   -0.7570    2.9264    0.5778 C   0  0  0  0  0  0  0  0  0  0  0  0
   -0.9979    3.9632    1.5201 C   0  0  0  0  0  0  0  0  0  0  0  0
   -1.9387    3.8137    2.5085 C   0  0  0  0  0  0  0  0  0  0  0  0
   -2.6769    2.6090    2.6002 C   0  0  0  0  0  0  0  0  0  0  0  0
   -2.4744    1.5928    1.6977 C   0  0  0  0  0  0  0  0  0  0  0  0
   -1.5188    1.7228    0.6506 C   0  0  0  0  0  0  0  0  0  0  0  0
    4.0045    1.3459    1.7119 H   0  0  0  0  0  0  0  0  0  0  0  0
    2.7503    2.4744    1.2012 H   0  0  0  0  0  0  0  0  0  0  0  0
    1.0639    0.6043    1.2332 H   0  0  0  0  0  0  0  0  0  0  0  0
    1.8182    0.9349    2.8045 H   0  0  0  0  0  0  0  0  0  0  0  0
    4.4854    3.0121   -0.4020 H   0  0  0  0  0  0  0  0  0  0  0  0
    5.0356    2.8816   -2.8124 H   0  0  0  0  0  0  0  0  0  0  0  0
    4.2614    0.9059   -4.1457 H   0  0  0  0  0  0  0  0  0  0  0  0
    3.0084   -0.9066   -3.0194 H   0  0  0  0  0  0  0  0  0  0  0  0
    3.0393   -3.4910   -0.2499 H   0  0  0  0  0  0  0  0  0  0  0  0
    3.6052   -4.6126    1.9095 H   0  0  0  0  0  0  0  0  0  0  0  0
    3.4587   -3.3285    4.0391 H   0  0  0  0  0  0  0  0  0  0  0  0
    2.7259   -0.9543    4.0082 H   0  0  0  0  0  0  0  0  0  0  0  0
   -1.6126   -3.9432    0.0007 H   0  0  0  0  0  0  0  0  0  0  0  0
   -4.1081   -3.9373   -0.2107 H   0  0  0  0  0  0  0  0  0  0  0  0
   -6.1918   -2.7131   -0.5696 H   0  0  0  0  0  0  0  0  0  0  0  0
   -7.4000   -0.5891   -0.9882 H   0  0  0  0  0  0  0  0  0  0  0  0
   -6.1231    1.5541   -1.1508 H   0  0  0  0  0  0  0  0  0  0  0  0
   -3.6850    1.5816   -0.8480 H   0  0  0  0  0  0  0  0  0  0  0  0
    1.2964    2.0950   -2.0396 H   0  0  0  0  0  0  0  0  0  0  0  0
    0.7991    3.9964   -0.4984 H   0  0  0  0  0  0  0  0  0  0  0  0
   -0.4118    4.8817    1.4449 H   0  0  0  0  0  0  0  0  0  0  0  0
   -2.1120    4.6140    3.2292 H   0  0  0  0  0  0  0  0  0  0  0  0
   -3.4098    2.4829    3.3984 H   0  0  0  0  0  0  0  0  0  0  0  0
   -3.0406    0.6657    1.7870 H   0  0  0  0  0  0  0  0  0  0  0  0
  1  2  1  0  0  0  0
  1  7  1  0  0  0  0
  1 17  1  0  0  0  0
  2  3  2  0  0  0  0
  2 11  1  0  0  0  0
  3  4  1  0  0  0  0
  3  8  1  0  0  0  0
  4  5  1  0  0  0  0
  4 39  1  0  0  0  0
  4 40  1  0  0  0  0
  5  6  1  0  0  0  0
  5 41  1  0  0  0  0
  5 42  1  0  0  0  0
  6  7  2  0  0  0  0
  6 15  1  0  0  0  0
  7 12  1  0  0  0  0
  8  9  2  0  0  0  0
  8 43  1  0  0  0  0
  9 10  1  0  0  0  0
  9 44  1  0  0  0  0
 10 11  2  0  0  0  0
 10 45  1  0  0  0  0
 11 46  1  0  0  0  0
 12 13  2  0  0  0  0
 12 47  1  0  0  0  0
 13 14  1  0  0  0  0
 13 48  1  0  0  0  0
 14 15  2  0  0  0  0
 14 49  1  0  0  0  0
 15 50  1  0  0  0  0
 16 17  1  0  0  0  0
 16 22  1  0  0  0  0
 17 18  1  0  0  0  0
 18 19  1  0  0  0  0
 19 20  2  0  0  0  0
 19 23  1  0  0  0  0
 20 21  1  0  0  0  0
 20 30  1  0  0  0  0
 21 22  2  0  0  0  0
 21 38  1  0  0  0  0
 22 31  1  0  0  0  0
 23 24  2  0  0  0  0
 23 51  1  0  0  0  0
 24 25  1  0  0  0  0
 24 52  1  0  0  0  0
 25 26  2  0  0  0  0
 25 30  1  0  0  0  0
 26 27  1  0  0  0  0
 26 53  1  0  0  0  0
 27 28  2  0  0  0  0
 27 54  1  0  0  0  0
 28 29  1  0  0  0  0
 28 55  1  0  0  0  0
 29 30  2  0  0  0  0
 29 56  1  0  0  0  0
 31 32  2  0  0  0  0
 31 57  1  0  0  0  0
 32 33  1  0  0  0  0
 32 58  1  0  0  0  0
 33 34  2  0  0  0  0
 33 38  1  0  0  0  0
 34 35  1  0  0  0  0
 34 59  1  0  0  0  0
 35 36  2  0  0  0  0
 35 60  1  0  0  0  0
 36 37  1  0  0  0  0
 36 61  1  0  0  0  0
 37 38  2  0  0  0  0
 37 62  1  0  0  0  0
M  END
$$$$
