Title Card Required
 OpenBabel03192317533D

 94 99  0  0  0  0  0  0  0  0999 V2000
    0.9699   -2.3977   -3.1815 C   0  0  0  0  0  0  0  0  0  0  0  0
    0.1043   -2.2747   -2.0869 C   0  0  0  0  0  0  0  0  0  0  0  0
    0.3515   -1.3528   -1.0610 C   0  0  0  0  0  0  0  0  0  0  0  0
    1.4951   -0.5373   -1.1481 C   0  0  0  0  0  0  0  0  0  0  0  0
    2.3643   -0.6520   -2.2310 C   0  0  0  0  0  0  0  0  0  0  0  0
    2.1023   -1.5803   -3.2429 C   0  0  0  0  0  0  0  0  0  0  0  0
   -0.5597   -1.2961    0.1187 C   0  0  0  0  0  0  0  0  0  0  0  0
   -0.4979   -2.3467    1.0567 C   0  0  0  0  0  0  0  0  0  0  0  0
   -1.2309   -2.3027    2.2442 C   0  0  0  0  0  0  0  0  0  0  0  0
   -2.0653   -1.2045    2.4915 C   0  0  0  0  0  0  0  0  0  0  0  0
   -2.1904   -0.1905    1.5436 C   0  0  0  0  0  0  0  0  0  0  0  0
   -1.4339   -0.2286    0.3699 C   0  0  0  0  0  0  0  0  0  0  0  0
    1.7096    0.7696    0.1508 P   0  0  0  0  0  0  0  0  0  0  0  0
   -1.6687    1.0368   -0.9717 P   0  0  0  0  0  0  0  0  0  0  0  0
    3.0012   -1.6296   -4.2534 O   0  0  0  0  0  0  0  0  0  0  0  0
    2.7789   -2.5239   -5.3076 C   0  0  0  0  0  0  0  0  0  0  0  0
   -1.0236   -3.0132   -1.9584 O   0  0  0  0  0  0  0  0  0  0  0  0
   -1.3170   -3.9790   -2.9287 C   0  0  0  0  0  0  0  0  0  0  0  0
    0.3232   -3.3738    0.7443 O   0  0  0  0  0  0  0  0  0  0  0  0
    0.3750   -4.4794    1.6010 C   0  0  0  0  0  0  0  0  0  0  0  0
   -2.7962   -1.0689    3.6226 O   0  0  0  0  0  0  0  0  0  0  0  0
   -2.6883   -2.0526    4.6132 C   0  0  0  0  0  0  0  0  0  0  0  0
    1.9889   -0.2803    1.6409 C   0  0  0  0  0  0  0  0  0  0  0  0
    2.5975   -1.5396    1.5992 C   0  0  0  0  0  0  0  0  0  0  0  0
    2.7229   -2.3028    2.7579 C   0  0  0  0  0  0  0  0  0  0  0  0
    2.2317   -1.8432    3.9856 C   0  0  0  0  0  0  0  0  0  0  0  0
    1.6258   -0.5826    4.0236 C   0  0  0  0  0  0  0  0  0  0  0  0
    1.5093    0.1890    2.8699 C   0  0  0  0  0  0  0  0  0  0  0  0
    3.3929    1.4058   -0.2414 C   0  0  0  0  0  0  0  0  0  0  0  0
    3.4621    2.4603   -1.1615 C   0  0  0  0  0  0  0  0  0  0  0  0
    4.6890    3.0016   -1.5373 C   0  0  0  0  0  0  0  0  0  0  0  0
    5.8844    2.5229   -0.9901 C   0  0  0  0  0  0  0  0  0  0  0  0
    5.8090    1.4878   -0.0516 C   0  0  0  0  0  0  0  0  0  0  0  0
    4.5854    0.9324    0.3169 C   0  0  0  0  0  0  0  0  0  0  0  0
   -3.4739    0.7177   -1.2507 C   0  0  0  0  0  0  0  0  0  0  0  0
   -1.6986    2.6473   -0.0813 C   0  0  0  0  0  0  0  0  0  0  0  0
   -3.7829   -0.4567   -1.9496 C   0  0  0  0  0  0  0  0  0  0  0  0
   -5.1054   -0.8048   -2.2109 C   0  0  0  0  0  0  0  0  0  0  0  0
   -6.1624    0.0135   -1.7982 C   0  0  0  0  0  0  0  0  0  0  0  0
   -5.8490    1.1848   -1.1012 C   0  0  0  0  0  0  0  0  0  0  0  0
   -4.5277    1.5338   -0.8258 C   0  0  0  0  0  0  0  0  0  0  0  0
   -2.1182    3.7670   -0.8136 C   0  0  0  0  0  0  0  0  0  0  0  0
   -2.0897    5.0430   -0.2567 C   0  0  0  0  0  0  0  0  0  0  0  0
   -1.6182    5.2513    1.0436 C   0  0  0  0  0  0  0  0  0  0  0  0
   -1.1734    4.1371    1.7625 C   0  0  0  0  0  0  0  0  0  0  0  0
   -1.2117    2.8569    1.2141 C   0  0  0  0  0  0  0  0  0  0  0  0
    2.3683   -2.6698    5.2377 C   0  0  0  0  0  0  0  0  0  0  0  0
    7.2154    3.0887   -1.4101 C   0  0  0  0  0  0  0  0  0  0  0  0
   -1.5944    6.6260    1.6586 C   0  0  0  0  0  0  0  0  0  0  0  0
   -7.5955   -0.3417   -2.0979 C   0  0  0  0  0  0  0  0  0  0  0  0
    0.7589   -3.1151   -3.9693 H   0  0  0  0  0  0  0  0  0  0  0  0
    3.2589   -0.0363   -2.3225 H   0  0  0  0  0  0  0  0  0  0  0  0
   -1.1435   -3.1054    2.9709 H   0  0  0  0  0  0  0  0  0  0  0  0
   -2.8951    0.6195    1.7401 H   0  0  0  0  0  0  0  0  0  0  0  0
    2.7680   -3.5705   -4.9582 H   0  0  0  0  0  0  0  0  0  0  0  0
    1.8286   -2.3123   -5.8265 H   0  0  0  0  0  0  0  0  0  0  0  0
    3.6067   -2.3931   -6.0135 H   0  0  0  0  0  0  0  0  0  0  0  0
   -1.4648   -3.5251   -3.9234 H   0  0  0  0  0  0  0  0  0  0  0  0
   -0.5207   -4.7391   -2.9977 H   0  0  0  0  0  0  0  0  0  0  0  0
   -2.2490   -4.4642   -2.6166 H   0  0  0  0  0  0  0  0  0  0  0  0
    0.7413   -4.1986    2.6032 H   0  0  0  0  0  0  0  0  0  0  0  0
   -0.6145   -4.9573    1.7001 H   0  0  0  0  0  0  0  0  0  0  0  0
    1.0762   -5.1927    1.1524 H   0  0  0  0  0  0  0  0  0  0  0  0
   -3.0253   -3.0377    4.2484 H   0  0  0  0  0  0  0  0  0  0  0  0
   -1.6517   -2.1444    4.9814 H   0  0  0  0  0  0  0  0  0  0  0  0
   -3.3352   -1.7401    5.4406 H   0  0  0  0  0  0  0  0  0  0  0  0
    2.9519   -1.9382    0.6452 H   0  0  0  0  0  0  0  0  0  0  0  0
    3.2007   -3.2847    2.7049 H   0  0  0  0  0  0  0  0  0  0  0  0
    1.2305   -0.2028    4.9692 H   0  0  0  0  0  0  0  0  0  0  0  0
    1.0258    1.1678    2.9203 H   0  0  0  0  0  0  0  0  0  0  0  0
    2.5389    2.8620   -1.5884 H   0  0  0  0  0  0  0  0  0  0  0  0
    4.7188    3.8205   -2.2598 H   0  0  0  0  0  0  0  0  0  0  0  0
    6.7284    1.1068    0.4000 H   0  0  0  0  0  0  0  0  0  0  0  0
    4.5614    0.1256    1.0515 H   0  0  0  0  0  0  0  0  0  0  0  0
   -2.9734   -1.1204   -2.2696 H   0  0  0  0  0  0  0  0  0  0  0  0
   -5.3231   -1.7304   -2.7495 H   0  0  0  0  0  0  0  0  0  0  0  0
   -6.6571    1.8364   -0.7586 H   0  0  0  0  0  0  0  0  0  0  0  0
   -4.3211    2.4493   -0.2681 H   0  0  0  0  0  0  0  0  0  0  0  0
   -2.4760    3.6395   -1.8394 H   0  0  0  0  0  0  0  0  0  0  0  0
   -2.4278    5.8965   -0.8492 H   0  0  0  0  0  0  0  0  0  0  0  0
   -0.7842    4.2732    2.7748 H   0  0  0  0  0  0  0  0  0  0  0  0
   -0.8500    2.0093    1.7972 H   0  0  0  0  0  0  0  0  0  0  0  0
    3.2020   -2.3071    5.8588 H   0  0  0  0  0  0  0  0  0  0  0  0
    1.4578   -2.6174    5.8518 H   0  0  0  0  0  0  0  0  0  0  0  0
    2.5659   -3.7245    5.0019 H   0  0  0  0  0  0  0  0  0  0  0  0
    7.9184    3.1204   -0.5665 H   0  0  0  0  0  0  0  0  0  0  0  0
    7.6714    2.4673   -2.1967 H   0  0  0  0  0  0  0  0  0  0  0  0
    7.1087    4.1056   -1.8107 H   0  0  0  0  0  0  0  0  0  0  0  0
   -2.3959    6.7371    2.4052 H   0  0  0  0  0  0  0  0  0  0  0  0
   -0.6406    6.8139    2.1716 H   0  0  0  0  0  0  0  0  0  0  0  0
   -1.7350    7.4054    0.8981 H   0  0  0  0  0  0  0  0  0  0  0  0
   -8.2132   -0.2960   -1.1892 H   0  0  0  0  0  0  0  0  0  0  0  0
   -8.0310    0.3598   -2.8257 H   0  0  0  0  0  0  0  0  0  0  0  0
   -7.6771   -1.3537   -2.5160 H   0  0  0  0  0  0  0  0  0  0  0  0
  1  2  2  0  0  0  0
  1  6  1  0  0  0  0
  1 51  1  0  0  0  0
  2  3  1  0  0  0  0
  2 17  1  0  0  0  0
  3  4  2  0  0  0  0
  3  7  1  0  0  0  0
  4  5  1  0  0  0  0
  4 13  1  0  0  0  0
  5  6  2  0  0  0  0
  5 52  1  0  0  0  0
  6 15  1  0  0  0  0
  7  8  2  0  0  0  0
  7 12  1  0  0  0  0
  8  9  1  0  0  0  0
  8 19  1  0  0  0  0
  9 10  2  0  0  0  0
  9 53  1  0  0  0  0
 10 11  1  0  0  0  0
 10 21  1  0  0  0  0
 11 12  2  0  0  0  0
 11 54  1  0  0  0  0
 12 14  1  0  0  0  0
 13 23  1  0  0  0  0
 13 29  1  0  0  0  0
 14 35  1  0  0  0  0
 14 36  1  0  0  0  0
 15 16  1  0  0  0  0
 16 55  1  0  0  0  0
 16 56  1  0  0  0  0
 16 57  1  0  0  0  0
 17 18  1  0  0  0  0
 18 58  1  0  0  0  0
 18 59  1  0  0  0  0
 18 60  1  0  0  0  0
 19 20  1  0  0  0  0
 20 61  1  0  0  0  0
 20 62  1  0  0  0  0
 20 63  1  0  0  0  0
 21 22  1  0  0  0  0
 22 64  1  0  0  0  0
 22 65  1  0  0  0  0
 22 66  1  0  0  0  0
 23 24  2  0  0  0  0
 23 28  1  0  0  0  0
 24 25  1  0  0  0  0
 24 67  1  0  0  0  0
 25 26  2  0  0  0  0
 25 68  1  0  0  0  0
 26 27  1  0  0  0  0
 26 47  1  0  0  0  0
 27 28  2  0  0  0  0
 27 69  1  0  0  0  0
 28 70  1  0  0  0  0
 29 30  2  0  0  0  0
 29 34  1  0  0  0  0
 30 31  1  0  0  0  0
 30 71  1  0  0  0  0
 31 32  2  0  0  0  0
 31 72  1  0  0  0  0
 32 33  1  0  0  0  0
 32 48  1  0  0  0  0
 33 34  2  0  0  0  0
 33 73  1  0  0  0  0
 34 74  1  0  0  0  0
 35 37  2  0  0  0  0
 35 41  1  0  0  0  0
 36 42  2  0  0  0  0
 36 46  1  0  0  0  0
 37 38  1  0  0  0  0
 37 75  1  0  0  0  0
 38 39  2  0  0  0  0
 38 76  1  0  0  0  0
 39 40  1  0  0  0  0
 39 50  1  0  0  0  0
 40 41  2  0  0  0  0
 40 77  1  0  0  0  0
 41 78  1  0  0  0  0
 42 43  1  0  0  0  0
 42 79  1  0  0  0  0
 43 44  2  0  0  0  0
 43 80  1  0  0  0  0
 44 45  1  0  0  0  0
 44 49  1  0  0  0  0
 45 46  2  0  0  0  0
 45 81  1  0  0  0  0
 46 82  1  0  0  0  0
 47 83  1  0  0  0  0
 47 84  1  0  0  0  0
 47 85  1  0  0  0  0
 48 86  1  0  0  0  0
 48 87  1  0  0  0  0
 48 88  1  0  0  0  0
 49 89  1  0  0  0  0
 49 90  1  0  0  0  0
 49 91  1  0  0  0  0
 50 92  1  0  0  0  0
 50 93  1  0  0  0  0
 50 94  1  0  0  0  0
M  END
$$$$
