Title Card Required
 OpenBabel03192317543D

194199  0  0  0  0  0  0  0  0999 V2000
    0.6047   -2.1189    0.5596 C   0  0  0  0  0  0  0  0  0  0  0  0
    1.8865   -1.6784    0.2354 C   0  0  0  0  0  0  0  0  0  0  0  0
    2.6032   -2.2645   -0.8210 C   0  0  0  0  0  0  0  0  0  0  0  0
    2.0159   -3.2786   -1.5714 C   0  0  0  0  0  0  0  0  0  0  0  0
    0.7114   -3.7105   -1.2874 C   0  0  0  0  0  0  0  0  0  0  0  0
    0.0143   -3.1346   -0.2329 C   0  0  0  0  0  0  0  0  0  0  0  0
   -0.1635   -1.5442    1.6994 C   0  0  0  0  0  0  0  0  0  0  0  0
   -1.2949   -0.7553    1.5085 C   0  0  0  0  0  0  0  0  0  0  0  0
   -1.9764   -0.1989    2.6065 C   0  0  0  0  0  0  0  0  0  0  0  0
   -1.5122   -0.4278    3.8964 C   0  0  0  0  0  0  0  0  0  0  0  0
   -0.3714   -1.2157    4.1100 C   0  0  0  0  0  0  0  0  0  0  0  0
    0.2926   -1.7694    3.0234 C   0  0  0  0  0  0  0  0  0  0  0  0
    1.4119   -2.5129    3.1474 O   0  0  0  0  0  0  0  0  0  0  0  0
    1.9304   -2.7286    4.4324 C   0  0  0  0  0  0  0  0  0  0  0  0
   -1.2469   -3.4802    0.1005 O   0  0  0  0  0  0  0  0  0  0  0  0
   -1.9384   -4.3906   -0.7143 C   0  0  0  0  0  0  0  0  0  0  0  0
   -2.0936    0.0835    5.0061 O   0  0  0  0  0  0  0  0  0  0  0  0
   -3.2495    0.8638    4.8404 C   0  0  0  0  0  0  0  0  0  0  0  0
    2.6240   -3.8980   -2.6080 O   0  0  0  0  0  0  0  0  0  0  0  0
    3.9293   -3.5026   -2.9423 C   0  0  0  0  0  0  0  0  0  0  0  0
   -1.7712   -0.3315   -0.2370 P   0  0  0  0  0  0  0  0  0  0  0  0
   -3.2857   -1.3295   -0.5401 C   0  0  0  0  0  0  0  0  0  0  0  0
   -4.1262   -1.8044    0.4592 C   0  0  0  0  0  0  0  0  0  0  0  0
   -5.2956   -2.5253    0.1784 C   0  0  0  0  0  0  0  0  0  0  0  0
   -5.6144   -2.7100   -1.1854 C   0  0  0  0  0  0  0  0  0  0  0  0
   -4.7181   -2.3577   -2.2239 C   0  0  0  0  0  0  0  0  0  0  0  0
   -3.5683   -1.6511   -1.8692 C   0  0  0  0  0  0  0  0  0  0  0  0
   -6.8224   -3.2550   -1.5479 O   0  0  0  0  0  0  0  0  0  0  0  0
   -7.8849   -2.3277   -1.4959 C   0  0  0  0  0  0  0  0  0  0  0  0
   -4.9435   -2.8236   -3.6728 C   0  0  0  0  0  0  0  0  0  0  0  0
   -6.2270   -2.2575   -4.3013 C   0  0  0  0  0  0  0  0  0  0  0  0
   -3.7718   -2.4005   -4.5703 C   0  0  0  0  0  0  0  0  0  0  0  0
   -4.9969   -4.3639   -3.6757 C   0  0  0  0  0  0  0  0  0  0  0  0
   -6.0981   -3.0704    1.3817 C   0  0  0  0  0  0  0  0  0  0  0  0
   -5.1045   -3.6825    2.3926 C   0  0  0  0  0  0  0  0  0  0  0  0
   -6.8509   -1.9213    2.0757 C   0  0  0  0  0  0  0  0  0  0  0  0
   -7.0816   -4.2006    1.0349 C   0  0  0  0  0  0  0  0  0  0  0  0
   -2.5152    1.3081    0.1623 C   0  0  0  0  0  0  0  0  0  0  0  0
   -1.6571    2.2530    0.7248 C   0  0  0  0  0  0  0  0  0  0  0  0
   -2.1312    3.4061    1.3492 C   0  0  0  0  0  0  0  0  0  0  0  0
   -3.5235    3.6630    1.2657 C   0  0  0  0  0  0  0  0  0  0  0  0
   -4.4215    2.7433    0.6815 C   0  0  0  0  0  0  0  0  0  0  0  0
   -3.8776    1.5740    0.1318 C   0  0  0  0  0  0  0  0  0  0  0  0
   -4.0125    4.8421    1.7642 O   0  0  0  0  0  0  0  0  0  0  0  0
   -3.9704    5.8972    0.8367 C   0  0  0  0  0  0  0  0  0  0  0  0
   -5.9616    2.8577    0.6424 C   0  0  0  0  0  0  0  0  0  0  0  0
   -6.4051    2.9893   -0.8249 C   0  0  0  0  0  0  0  0  0  0  0  0
   -6.5650    1.5643    1.2336 C   0  0  0  0  0  0  0  0  0  0  0  0
   -6.5723    4.0179    1.4433 C   0  0  0  0  0  0  0  0  0  0  0  0
   -1.0895    4.2421    2.1269 C   0  0  0  0  0  0  0  0  0  0  0  0
   -0.1620    4.9441    1.1235 C   0  0  0  0  0  0  0  0  0  0  0  0
   -1.6624    5.2816    3.1017 C   0  0  0  0  0  0  0  0  0  0  0  0
   -0.2278    3.2851    2.9808 C   0  0  0  0  0  0  0  0  0  0  0  0
    2.5513   -0.1749    1.1139 P   0  0  0  0  0  0  0  0  0  0  0  0
    4.3478   -0.4866    0.8169 C   0  0  0  0  0  0  0  0  0  0  0  0
    5.1229    0.1421   -0.1463 C   0  0  0  0  0  0  0  0  0  0  0  0
    6.4610   -0.2127   -0.3844 C   0  0  0  0  0  0  0  0  0  0  0  0
    7.0192   -1.1977    0.4498 C   0  0  0  0  0  0  0  0  0  0  0  0
    6.2395   -1.9191    1.3927 C   0  0  0  0  0  0  0  0  0  0  0  0
    4.9156   -1.5245    1.5640 C   0  0  0  0  0  0  0  0  0  0  0  0
    8.3573   -1.5027    0.3656 O   0  0  0  0  0  0  0  0  0  0  0  0
    9.1870   -0.5850    1.0449 C   0  0  0  0  0  0  0  0  0  0  0  0
    6.7824   -3.1826    2.0872 C   0  0  0  0  0  0  0  0  0  0  0  0
    8.0193   -2.9082    2.9592 C   0  0  0  0  0  0  0  0  0  0  0  0
    5.7199   -3.8146    2.9973 C   0  0  0  0  0  0  0  0  0  0  0  0
    7.1415   -4.2038    0.9927 C   0  0  0  0  0  0  0  0  0  0  0  0
    7.1649    0.4819   -1.5695 C   0  0  0  0  0  0  0  0  0  0  0  0
    6.2043    0.4779   -2.7816 C   0  0  0  0  0  0  0  0  0  0  0  0
    7.4746    1.9435   -1.2028 C   0  0  0  0  0  0  0  0  0  0  0  0
    8.4445   -0.2193   -2.0586 C   0  0  0  0  0  0  0  0  0  0  0  0
    2.1676    1.1044   -0.1702 C   0  0  0  0  0  0  0  0  0  0  0  0
    1.3760    0.8360   -1.2816 C   0  0  0  0  0  0  0  0  0  0  0  0
    1.1000    1.7937   -2.2694 C   0  0  0  0  0  0  0  0  0  0  0  0
    1.6628    3.0753   -2.0879 C   0  0  0  0  0  0  0  0  0  0  0  0
    2.5292    3.3722   -1.0050 C   0  0  0  0  0  0  0  0  0  0  0  0
    2.7178    2.3843   -0.0341 C   0  0  0  0  0  0  0  0  0  0  0  0
    1.4652    4.0755   -3.0083 O   0  0  0  0  0  0  0  0  0  0  0  0
    0.2290    4.7582   -2.9878 C   0  0  0  0  0  0  0  0  0  0  0  0
    3.3532    4.6743   -0.9775 C   0  0  0  0  0  0  0  0  0  0  0  0
    4.1311    4.8136    0.3391 C   0  0  0  0  0  0  0  0  0  0  0  0
    4.3722    4.5943   -2.1296 C   0  0  0  0  0  0  0  0  0  0  0  0
    2.5178    5.9557   -1.1538 C   0  0  0  0  0  0  0  0  0  0  0  0
    0.2984    1.3475   -3.5131 C   0  0  0  0  0  0  0  0  0  0  0  0
   -1.1880    1.7288   -3.3899 C   0  0  0  0  0  0  0  0  0  0  0  0
    0.8907    1.9252   -4.8109 C   0  0  0  0  0  0  0  0  0  0  0  0
    0.3445   -0.1875   -3.6514 C   0  0  0  0  0  0  0  0  0  0  0  0
    3.6022   -1.9040   -1.0587 H   0  0  0  0  0  0  0  0  0  0  0  0
    0.2892   -4.4964   -1.9106 H   0  0  0  0  0  0  0  0  0  0  0  0
   -2.8397    0.4422    2.4355 H   0  0  0  0  0  0  0  0  0  0  0  0
   -0.0343   -1.3504    5.1359 H   0  0  0  0  0  0  0  0  0  0  0  0
    2.2049   -1.7781    4.9196 H   0  0  0  0  0  0  0  0  0  0  0  0
    1.2106   -3.2659    5.0723 H   0  0  0  0  0  0  0  0  0  0  0  0
    2.8282   -3.3450    4.3058 H   0  0  0  0  0  0  0  0  0  0  0  0
   -1.9595   -4.0542   -1.7649 H   0  0  0  0  0  0  0  0  0  0  0  0
   -1.4865   -5.3957   -0.6666 H   0  0  0  0  0  0  0  0  0  0  0  0
   -2.9685   -4.4275   -0.3362 H   0  0  0  0  0  0  0  0  0  0  0  0
   -3.0597    1.7484    4.2098 H   0  0  0  0  0  0  0  0  0  0  0  0
   -4.0652    0.2770    4.3849 H   0  0  0  0  0  0  0  0  0  0  0  0
   -3.5540    1.1896    5.8411 H   0  0  0  0  0  0  0  0  0  0  0  0
    3.9604   -2.4470   -3.2597 H   0  0  0  0  0  0  0  0  0  0  0  0
    4.6246   -3.6364   -2.0963 H   0  0  0  0  0  0  0  0  0  0  0  0
    4.2452   -4.1405   -3.7749 H   0  0  0  0  0  0  0  0  0  0  0  0
   -3.8506   -1.6194    1.4971 H   0  0  0  0  0  0  0  0  0  0  0  0
   -2.8546   -1.3481   -2.6375 H   0  0  0  0  0  0  0  0  0  0  0  0
   -8.1129   -2.0424   -0.4550 H   0  0  0  0  0  0  0  0  0  0  0  0
   -7.6420   -1.4154   -2.0653 H   0  0  0  0  0  0  0  0  0  0  0  0
   -8.7653   -2.8128   -1.9392 H   0  0  0  0  0  0  0  0  0  0  0  0
   -6.2546   -1.1592   -4.2204 H   0  0  0  0  0  0  0  0  0  0  0  0
   -6.2502   -2.5185   -5.3703 H   0  0  0  0  0  0  0  0  0  0  0  0
   -7.1281   -2.6713   -3.8362 H   0  0  0  0  0  0  0  0  0  0  0  0
   -2.8119   -2.7871   -4.1971 H   0  0  0  0  0  0  0  0  0  0  0  0
   -3.9301   -2.8076   -5.5792 H   0  0  0  0  0  0  0  0  0  0  0  0
   -3.6914   -1.3063   -4.6551 H   0  0  0  0  0  0  0  0  0  0  0  0
   -4.0654   -4.7715   -3.2545 H   0  0  0  0  0  0  0  0  0  0  0  0
   -5.8408   -4.7299   -3.0785 H   0  0  0  0  0  0  0  0  0  0  0  0
   -5.1009   -4.7419   -4.7044 H   0  0  0  0  0  0  0  0  0  0  0  0
   -4.4290   -2.9427    2.8386 H   0  0  0  0  0  0  0  0  0  0  0  0
   -5.6597   -4.1614    3.2130 H   0  0  0  0  0  0  0  0  0  0  0  0
   -4.4890   -4.4525    1.9042 H   0  0  0  0  0  0  0  0  0  0  0  0
   -7.6395   -1.5063    1.4338 H   0  0  0  0  0  0  0  0  0  0  0  0
   -7.3251   -2.2817    3.0017 H   0  0  0  0  0  0  0  0  0  0  0  0
   -6.1646   -1.0997    2.3316 H   0  0  0  0  0  0  0  0  0  0  0  0
   -7.9478   -3.8656    0.4553 H   0  0  0  0  0  0  0  0  0  0  0  0
   -6.5805   -4.9955    0.4657 H   0  0  0  0  0  0  0  0  0  0  0  0
   -7.4539   -4.6376    1.9743 H   0  0  0  0  0  0  0  0  0  0  0  0
   -0.5867    2.0290    0.7518 H   0  0  0  0  0  0  0  0  0  0  0  0
   -4.5471    0.8297   -0.3013 H   0  0  0  0  0  0  0  0  0  0  0  0
   -2.9313    6.1371    0.5508 H   0  0  0  0  0  0  0  0  0  0  0  0
   -4.5339    5.6463   -0.0792 H   0  0  0  0  0  0  0  0  0  0  0  0
   -4.4255    6.7749    1.3140 H   0  0  0  0  0  0  0  0  0  0  0  0
   -6.0717    2.1287   -1.4245 H   0  0  0  0  0  0  0  0  0  0  0  0
   -7.5033    3.0462   -0.8861 H   0  0  0  0  0  0  0  0  0  0  0  0
   -5.9888    3.9011   -1.2792 H   0  0  0  0  0  0  0  0  0  0  0  0
   -6.2444    1.4305    2.2784 H   0  0  0  0  0  0  0  0  0  0  0  0
   -7.6637    1.6310    1.2191 H   0  0  0  0  0  0  0  0  0  0  0  0
   -6.2790    0.6610    0.6758 H   0  0  0  0  0  0  0  0  0  0  0  0
   -6.2301    4.0241    2.4857 H   0  0  0  0  0  0  0  0  0  0  0  0
   -6.3477    4.9981    1.0057 H   0  0  0  0  0  0  0  0  0  0  0  0
   -7.6664    3.8983    1.4355 H   0  0  0  0  0  0  0  0  0  0  0  0
   -0.7101    5.6695    0.5015 H   0  0  0  0  0  0  0  0  0  0  0  0
    0.6363    5.4890    1.6533 H   0  0  0  0  0  0  0  0  0  0  0  0
    0.3166    4.2111    0.4549 H   0  0  0  0  0  0  0  0  0  0  0  0
   -2.4037    4.8340    3.7774 H   0  0  0  0  0  0  0  0  0  0  0  0
   -0.8308    5.6701    3.7087 H   0  0  0  0  0  0  0  0  0  0  0  0
   -2.1326    6.1353    2.6011 H   0  0  0  0  0  0  0  0  0  0  0  0
   -0.8496    2.6747    3.6530 H   0  0  0  0  0  0  0  0  0  0  0  0
    0.3814    2.6020    2.3740 H   0  0  0  0  0  0  0  0  0  0  0  0
    0.4623    3.8781    3.5995 H   0  0  0  0  0  0  0  0  0  0  0  0
    4.6638    0.9075   -0.7705 H   0  0  0  0  0  0  0  0  0  0  0  0
    4.2713   -2.0574    2.2646 H   0  0  0  0  0  0  0  0  0  0  0  0
    9.1222    0.4220    0.6035 H   0  0  0  0  0  0  0  0  0  0  0  0
    8.9127   -0.5186    2.1096 H   0  0  0  0  0  0  0  0  0  0  0  0
   10.2175   -0.9531    0.9556 H   0  0  0  0  0  0  0  0  0  0  0  0
    7.8313   -2.0839    3.6646 H   0  0  0  0  0  0  0  0  0  0  0  0
    8.2563   -3.8073    3.5485 H   0  0  0  0  0  0  0  0  0  0  0  0
    8.8998   -2.6698    2.3532 H   0  0  0  0  0  0  0  0  0  0  0  0
    4.7985   -4.0586    2.4484 H   0  0  0  0  0  0  0  0  0  0  0  0
    6.1183   -4.7490    3.4189 H   0  0  0  0  0  0  0  0  0  0  0  0
    5.4635   -3.1485    3.8360 H   0  0  0  0  0  0  0  0  0  0  0  0
    6.2469   -4.4623    0.4058 H   0  0  0  0  0  0  0  0  0  0  0  0
    7.9052   -3.7957    0.3179 H   0  0  0  0  0  0  0  0  0  0  0  0
    7.5320   -5.1274    1.4481 H   0  0  0  0  0  0  0  0  0  0  0  0
    5.2908    1.0639   -2.6174 H   0  0  0  0  0  0  0  0  0  0  0  0
    6.7162    0.9130   -3.6524 H   0  0  0  0  0  0  0  0  0  0  0  0
    5.9094   -0.5515   -3.0366 H   0  0  0  0  0  0  0  0  0  0  0  0
    8.1929    2.0152   -0.3734 H   0  0  0  0  0  0  0  0  0  0  0  0
    7.9026    2.4697   -2.0707 H   0  0  0  0  0  0  0  0  0  0  0  0
    6.5595    2.4742   -0.8989 H   0  0  0  0  0  0  0  0  0  0  0  0
    9.2864   -0.1184   -1.3657 H   0  0  0  0  0  0  0  0  0  0  0  0
    8.2733   -1.2926   -2.2190 H   0  0  0  0  0  0  0  0  0  0  0  0
    8.7444    0.2325   -3.0153 H   0  0  0  0  0  0  0  0  0  0  0  0
    0.9679   -0.1631   -1.3926 H   0  0  0  0  0  0  0  0  0  0  0  0
    3.3495    2.5862    0.8311 H   0  0  0  0  0  0  0  0  0  0  0  0
   -0.3584    4.5164   -3.8878 H   0  0  0  0  0  0  0  0  0  0  0  0
   -0.3583    4.4984   -2.0930 H   0  0  0  0  0  0  0  0  0  0  0  0
    0.4224    5.8408   -2.9852 H   0  0  0  0  0  0  0  0  0  0  0  0
    4.8326    3.9820    0.4956 H   0  0  0  0  0  0  0  0  0  0  0  0
    4.7228    5.7400    0.3099 H   0  0  0  0  0  0  0  0  0  0  0  0
    3.4545    4.8686    1.2063 H   0  0  0  0  0  0  0  0  0  0  0  0
    3.8522    4.5061   -3.0934 H   0  0  0  0  0  0  0  0  0  0  0  0
    4.9958    5.5025   -2.1493 H   0  0  0  0  0  0  0  0  0  0  0  0
    5.0347    3.7248   -2.0026 H   0  0  0  0  0  0  0  0  0  0  0  0
    2.2889    6.1360   -2.2083 H   0  0  0  0  0  0  0  0  0  0  0  0
    1.5773    5.9174   -0.5869 H   0  0  0  0  0  0  0  0  0  0  0  0
    3.0958    6.8180   -0.7886 H   0  0  0  0  0  0  0  0  0  0  0  0
   -1.3479    2.8098   -3.3262 H   0  0  0  0  0  0  0  0  0  0  0  0
   -1.7376    1.3603   -4.2716 H   0  0  0  0  0  0  0  0  0  0  0  0
   -1.6282    1.2724   -2.4931 H   0  0  0  0  0  0  0  0  0  0  0  0
    1.9659    1.6985   -4.8785 H   0  0  0  0  0  0  0  0  0  0  0  0
    0.3888    1.4598   -5.6725 H   0  0  0  0  0  0  0  0  0  0  0  0
    0.7802    3.0115   -4.8939 H   0  0  0  0  0  0  0  0  0  0  0  0
    1.3780   -0.5674   -3.6420 H   0  0  0  0  0  0  0  0  0  0  0  0
   -0.2159   -0.6938   -2.8512 H   0  0  0  0  0  0  0  0  0  0  0  0
   -0.1165   -0.4716   -4.6093 H   0  0  0  0  0  0  0  0  0  0  0  0
  1  2  2  0  0  0  0
  1  6  1  0  0  0  0
  1  7  1  0  0  0  0
  2  3  1  0  0  0  0
  2 54  1  0  0  0  0
  3  4  2  0  0  0  0
  3 87  1  0  0  0  0
  4  5  1  0  0  0  0
  4 19  1  0  0  0  0
  5  6  2  0  0  0  0
  5 88  1  0  0  0  0
  6 15  1  0  0  0  0
  7  8  2  0  0  0  0
  7 12  1  0  0  0  0
  8  9  1  0  0  0  0
  8 21  1  0  0  0  0
  9 10  2  0  0  0  0
  9 89  1  0  0  0  0
 10 11  1  0  0  0  0
 10 17  1  0  0  0  0
 11 12  2  0  0  0  0
 11 90  1  0  0  0  0
 12 13  1  0  0  0  0
 13 14  1  0  0  0  0
 14 91  1  0  0  0  0
 14 92  1  0  0  0  0
 14 93  1  0  0  0  0
 15 16  1  0  0  0  0
 16 94  1  0  0  0  0
 16 95  1  0  0  0  0
 16 96  1  0  0  0  0
 17 18  1  0  0  0  0
 18 97  1  0  0  0  0
 18 98  1  0  0  0  0
 18 99  1  0  0  0  0
 19 20  1  0  0  0  0
 20100  1  0  0  0  0
 20101  1  0  0  0  0
 20102  1  0  0  0  0
 21 22  1  0  0  0  0
 21 38  1  0  0  0  0
 22 23  2  0  0  0  0
 22 27  1  0  0  0  0
 23 24  1  0  0  0  0
 23103  1  0  0  0  0
 24 25  2  0  0  0  0
 24 34  1  0  0  0  0
 25 26  1  0  0  0  0
 25 28  1  0  0  0  0
 26 27  2  0  0  0  0
 26 30  1  0  0  0  0
 27104  1  0  0  0  0
 28 29  1  0  0  0  0
 29105  1  0  0  0  0
 29106  1  0  0  0  0
 29107  1  0  0  0  0
 30 31  1  0  0  0  0
 30 32  1  0  0  0  0
 30 33  1  0  0  0  0
 31108  1  0  0  0  0
 31109  1  0  0  0  0
 31110  1  0  0  0  0
 32111  1  0  0  0  0
 32112  1  0  0  0  0
 32113  1  0  0  0  0
 33114  1  0  0  0  0
 33115  1  0  0  0  0
 33116  1  0  0  0  0
 34 35  1  0  0  0  0
 34 36  1  0  0  0  0
 34 37  1  0  0  0  0
 35117  1  0  0  0  0
 35118  1  0  0  0  0
 35119  1  0  0  0  0
 36120  1  0  0  0  0
 36121  1  0  0  0  0
 36122  1  0  0  0  0
 37123  1  0  0  0  0
 37124  1  0  0  0  0
 37125  1  0  0  0  0
 38 39  2  0  0  0  0
 38 43  1  0  0  0  0
 39 40  1  0  0  0  0
 39126  1  0  0  0  0
 40 41  2  0  0  0  0
 40 50  1  0  0  0  0
 41 42  1  0  0  0  0
 41 44  1  0  0  0  0
 42 43  2  0  0  0  0
 42 46  1  0  0  0  0
 43127  1  0  0  0  0
 44 45  1  0  0  0  0
 45128  1  0  0  0  0
 45129  1  0  0  0  0
 45130  1  0  0  0  0
 46 47  1  0  0  0  0
 46 48  1  0  0  0  0
 46 49  1  0  0  0  0
 47131  1  0  0  0  0
 47132  1  0  0  0  0
 47133  1  0  0  0  0
 48134  1  0  0  0  0
 48135  1  0  0  0  0
 48136  1  0  0  0  0
 49137  1  0  0  0  0
 49138  1  0  0  0  0
 49139  1  0  0  0  0
 50 51  1  0  0  0  0
 50 52  1  0  0  0  0
 50 53  1  0  0  0  0
 51140  1  0  0  0  0
 51141  1  0  0  0  0
 51142  1  0  0  0  0
 52143  1  0  0  0  0
 52144  1  0  0  0  0
 52145  1  0  0  0  0
 53146  1  0  0  0  0
 53147  1  0  0  0  0
 53148  1  0  0  0  0
 54 55  1  0  0  0  0
 54 71  1  0  0  0  0
 55 56  2  0  0  0  0
 55 60  1  0  0  0  0
 56 57  1  0  0  0  0
 56149  1  0  0  0  0
 57 58  2  0  0  0  0
 57 67  1  0  0  0  0
 58 59  1  0  0  0  0
 58 61  1  0  0  0  0
 59 60  2  0  0  0  0
 59 63  1  0  0  0  0
 60150  1  0  0  0  0
 61 62  1  0  0  0  0
 62151  1  0  0  0  0
 62152  1  0  0  0  0
 62153  1  0  0  0  0
 63 64  1  0  0  0  0
 63 65  1  0  0  0  0
 63 66  1  0  0  0  0
 64154  1  0  0  0  0
 64155  1  0  0  0  0
 64156  1  0  0  0  0
 65157  1  0  0  0  0
 65158  1  0  0  0  0
 65159  1  0  0  0  0
 66160  1  0  0  0  0
 66161  1  0  0  0  0
 66162  1  0  0  0  0
 67 68  1  0  0  0  0
 67 69  1  0  0  0  0
 67 70  1  0  0  0  0
 68163  1  0  0  0  0
 68164  1  0  0  0  0
 68165  1  0  0  0  0
 69166  1  0  0  0  0
 69167  1  0  0  0  0
 69168  1  0  0  0  0
 70169  1  0  0  0  0
 70170  1  0  0  0  0
 70171  1  0  0  0  0
 71 72  2  0  0  0  0
 71 76  1  0  0  0  0
 72 73  1  0  0  0  0
 72172  1  0  0  0  0
 73 74  2  0  0  0  0
 73 83  1  0  0  0  0
 74 75  1  0  0  0  0
 74 77  1  0  0  0  0
 75 76  2  0  0  0  0
 75 79  1  0  0  0  0
 76173  1  0  0  0  0
 77 78  1  0  0  0  0
 78174  1  0  0  0  0
 78175  1  0  0  0  0
 78176  1  0  0  0  0
 79 80  1  0  0  0  0
 79 81  1  0  0  0  0
 79 82  1  0  0  0  0
 80177  1  0  0  0  0
 80178  1  0  0  0  0
 80179  1  0  0  0  0
 81180  1  0  0  0  0
 81181  1  0  0  0  0
 81182  1  0  0  0  0
 82183  1  0  0  0  0
 82184  1  0  0  0  0
 82185  1  0  0  0  0
 83 84  1  0  0  0  0
 83 85  1  0  0  0  0
 83 86  1  0  0  0  0
 84186  1  0  0  0  0
 84187  1  0  0  0  0
 84188  1  0  0  0  0
 85189  1  0  0  0  0
 85190  1  0  0  0  0
 85191  1  0  0  0  0
 86192  1  0  0  0  0
 86193  1  0  0  0  0
 86194  1  0  0  0  0
M  END
$$$$
