Title Card Required
 OpenBabel03192317473D

118123  0  0  0  0  0  0  0  0999 V2000
    4.0169   -1.5325   -4.1503 C   0  0  0  0  0  0  0  0  0  0  0  0
    2.7466   -2.1269   -4.0978 O   0  0  0  0  0  0  0  0  0  0  0  0
    2.0447   -2.0180   -2.9461 C   0  0  0  0  0  0  0  0  0  0  0  0
    2.5177   -1.3794   -1.8027 C   0  0  0  0  0  0  0  0  0  0  0  0
    1.7065   -1.3249   -0.6600 C   0  0  0  0  0  0  0  0  0  0  0  0
    2.2068   -0.3532    0.8412 P   0  0  0  0  0  0  0  0  0  0  0  0
    4.0423   -0.3868    0.6120 C   0  0  0  0  0  0  0  0  0  0  0  0
    4.8146    0.6637    0.1168 C   0  0  0  0  0  0  0  0  0  0  0  0
    6.2023    0.5429   -0.0371 C   0  0  0  0  0  0  0  0  0  0  0  0
    6.9828    1.7174   -0.5760 C   0  0  0  0  0  0  0  0  0  0  0  0
    6.8356   -0.6637    0.3068 C   0  0  0  0  0  0  0  0  0  0  0  0
    6.0642   -1.7337    0.8050 C   0  0  0  0  0  0  0  0  0  0  0  0
    6.7252   -3.0365    1.1715 C   0  0  0  0  0  0  0  0  0  0  0  0
    4.6876   -1.5782    0.9598 C   0  0  0  0  0  0  0  0  0  0  0  0
    8.3242   -0.8489    0.1570 C   0  0  0  0  0  0  0  0  0  0  0  0
    1.7812    1.3502    0.2692 C   0  0  0  0  0  0  0  0  0  0  0  0
    1.1763    1.6417   -0.9537 C   0  0  0  0  0  0  0  0  0  0  0  0
    0.8976    2.9593   -1.3383 C   0  0  0  0  0  0  0  0  0  0  0  0
    0.2516    3.2041   -2.6797 C   0  0  0  0  0  0  0  0  0  0  0  0
    1.2461    4.0179   -0.4829 C   0  0  0  0  0  0  0  0  0  0  0  0
    1.8461    3.7361    0.7614 C   0  0  0  0  0  0  0  0  0  0  0  0
    2.2392    4.8623    1.6815 C   0  0  0  0  0  0  0  0  0  0  0  0
    2.0840    2.4126    1.1295 C   0  0  0  0  0  0  0  0  0  0  0  0
    0.9971    5.4549   -0.8622 C   0  0  0  0  0  0  0  0  0  0  0  0
    0.4491   -1.9131   -0.6361 C   0  0  0  0  0  0  0  0  0  0  0  0
   -0.0235   -2.5467   -1.8104 C   0  0  0  0  0  0  0  0  0  0  0  0
   -1.2623   -3.0905   -1.7549 O   0  0  0  0  0  0  0  0  0  0  0  0
   -1.8501   -3.5207   -2.9559 C   0  0  0  0  0  0  0  0  0  0  0  0
    0.7651   -2.5935   -2.9556 C   0  0  0  0  0  0  0  0  0  0  0  0
   -0.3686   -1.9024    0.6064 C   0  0  0  0  0  0  0  0  0  0  0  0
    0.0527   -2.6479    1.7278 C   0  0  0  0  0  0  0  0  0  0  0  0
    1.2121   -3.3324    1.5950 O   0  0  0  0  0  0  0  0  0  0  0  0
    1.7082   -4.0467    2.6925 C   0  0  0  0  0  0  0  0  0  0  0  0
   -0.6955   -2.6550    2.9094 C   0  0  0  0  0  0  0  0  0  0  0  0
   -1.8941   -1.9285    2.9680 C   0  0  0  0  0  0  0  0  0  0  0  0
   -2.3256   -1.2007    1.8598 C   0  0  0  0  0  0  0  0  0  0  0  0
   -1.5566   -1.1798    0.6949 C   0  0  0  0  0  0  0  0  0  0  0  0
   -2.0834   -0.1788   -0.7780 P   0  0  0  0  0  0  0  0  0  0  0  0
   -3.8972   -0.5582   -0.6972 C   0  0  0  0  0  0  0  0  0  0  0  0
   -4.9146    0.3894   -0.6048 C   0  0  0  0  0  0  0  0  0  0  0  0
   -6.2641    0.0134   -0.6120 C   0  0  0  0  0  0  0  0  0  0  0  0
   -7.3259    1.0812   -0.5232 C   0  0  0  0  0  0  0  0  0  0  0  0
   -6.6128   -1.3443   -0.7047 C   0  0  0  0  0  0  0  0  0  0  0  0
   -5.5917   -2.3125   -0.7899 C   0  0  0  0  0  0  0  0  0  0  0  0
   -5.9213   -3.7809   -0.8902 C   0  0  0  0  0  0  0  0  0  0  0  0
   -4.2572   -1.9079   -0.7897 C   0  0  0  0  0  0  0  0  0  0  0  0
   -8.0619   -1.7588   -0.7478 C   0  0  0  0  0  0  0  0  0  0  0  0
   -1.9976    1.5425   -0.1164 C   0  0  0  0  0  0  0  0  0  0  0  0
   -2.4360    2.5787   -0.9493 C   0  0  0  0  0  0  0  0  0  0  0  0
   -2.3993    3.9140   -0.5432 C   0  0  0  0  0  0  0  0  0  0  0  0
   -2.9154    4.9891   -1.4666 C   0  0  0  0  0  0  0  0  0  0  0  0
   -1.8793    4.2406    0.7239 C   0  0  0  0  0  0  0  0  0  0  0  0
   -1.3903    3.2148    1.5517 C   0  0  0  0  0  0  0  0  0  0  0  0
   -0.8305    3.5100    2.9204 C   0  0  0  0  0  0  0  0  0  0  0  0
   -1.4538    1.8848    1.1223 C   0  0  0  0  0  0  0  0  0  0  0  0
   -1.8929    5.6712    1.2011 C   0  0  0  0  0  0  0  0  0  0  0  0
   -2.6815   -1.8823    4.0682 O   0  0  0  0  0  0  0  0  0  0  0  0
   -2.2890   -2.5961    5.2072 C   0  0  0  0  0  0  0  0  0  0  0  0
    4.4107   -1.7189   -5.1559 H   0  0  0  0  0  0  0  0  0  0  0  0
    4.7008   -1.9713   -3.4045 H   0  0  0  0  0  0  0  0  0  0  0  0
    3.9605   -0.4447   -3.9787 H   0  0  0  0  0  0  0  0  0  0  0  0
    3.4956   -0.9028   -1.7877 H   0  0  0  0  0  0  0  0  0  0  0  0
    4.3343    1.6021   -0.1706 H   0  0  0  0  0  0  0  0  0  0  0  0
    7.7230    2.0808    0.1532 H   0  0  0  0  0  0  0  0  0  0  0  0
    7.5310    1.4576   -1.4941 H   0  0  0  0  0  0  0  0  0  0  0  0
    6.3087    2.5509   -0.8112 H   0  0  0  0  0  0  0  0  0  0  0  0
    5.9897   -3.7585    1.5486 H   0  0  0  0  0  0  0  0  0  0  0  0
    7.2304   -3.4883    0.3036 H   0  0  0  0  0  0  0  0  0  0  0  0
    7.4932   -2.8949    1.9476 H   0  0  0  0  0  0  0  0  0  0  0  0
    4.0941   -2.4129    1.3454 H   0  0  0  0  0  0  0  0  0  0  0  0
    8.7858   -1.1301    1.1163 H   0  0  0  0  0  0  0  0  0  0  0  0
    8.5529   -1.6613   -0.5509 H   0  0  0  0  0  0  0  0  0  0  0  0
    8.8261    0.0564   -0.2008 H   0  0  0  0  0  0  0  0  0  0  0  0
    0.9059    0.8346   -1.6373 H   0  0  0  0  0  0  0  0  0  0  0  0
   -0.6808    3.7797   -2.5805 H   0  0  0  0  0  0  0  0  0  0  0  0
    0.9172    3.7666   -3.3531 H   0  0  0  0  0  0  0  0  0  0  0  0
    0.0046    2.2506   -3.1642 H   0  0  0  0  0  0  0  0  0  0  0  0
    2.6649    4.4775    2.6174 H   0  0  0  0  0  0  0  0  0  0  0  0
    2.9879    5.5190    1.2110 H   0  0  0  0  0  0  0  0  0  0  0  0
    1.3775    5.5002    1.9332 H   0  0  0  0  0  0  0  0  0  0  0  0
    2.5445    2.2077    2.1015 H   0  0  0  0  0  0  0  0  0  0  0  0
    0.3573    5.9535   -0.1173 H   0  0  0  0  0  0  0  0  0  0  0  0
    1.9395    6.0242   -0.8990 H   0  0  0  0  0  0  0  0  0  0  0  0
    0.5111    5.5509   -1.8392 H   0  0  0  0  0  0  0  0  0  0  0  0
   -1.8704   -2.7072   -3.6991 H   0  0  0  0  0  0  0  0  0  0  0  0
   -1.3179   -4.3883   -3.3790 H   0  0  0  0  0  0  0  0  0  0  0  0
   -2.8797   -3.8123   -2.7172 H   0  0  0  0  0  0  0  0  0  0  0  0
    0.4363   -3.0743   -3.8742 H   0  0  0  0  0  0  0  0  0  0  0  0
    1.9389   -3.3758    3.5372 H   0  0  0  0  0  0  0  0  0  0  0  0
    0.9990   -4.8214    3.0290 H   0  0  0  0  0  0  0  0  0  0  0  0
    2.6313   -4.5345    2.3582 H   0  0  0  0  0  0  0  0  0  0  0  0
   -0.3527   -3.2222    3.7700 H   0  0  0  0  0  0  0  0  0  0  0  0
   -3.2615   -0.6446    1.9332 H   0  0  0  0  0  0  0  0  0  0  0  0
   -4.6709    1.4491   -0.5101 H   0  0  0  0  0  0  0  0  0  0  0  0
   -7.9828    1.0706   -1.4068 H   0  0  0  0  0  0  0  0  0  0  0  0
   -7.9696    0.9416    0.3588 H   0  0  0  0  0  0  0  0  0  0  0  0
   -6.8697    2.0769   -0.4515 H   0  0  0  0  0  0  0  0  0  0  0  0
   -5.0039   -4.3832   -0.9191 H   0  0  0  0  0  0  0  0  0  0  0  0
   -6.5168   -4.1225   -0.0299 H   0  0  0  0  0  0  0  0  0  0  0  0
   -6.5065   -4.0034   -1.7960 H   0  0  0  0  0  0  0  0  0  0  0  0
   -3.4669   -2.6636   -0.8295 H   0  0  0  0  0  0  0  0  0  0  0  0
   -8.4348   -1.7829   -1.7860 H   0  0  0  0  0  0  0  0  0  0  0  0
   -8.2139   -2.7607   -0.3270 H   0  0  0  0  0  0  0  0  0  0  0  0
   -8.7023   -1.0635   -0.1907 H   0  0  0  0  0  0  0  0  0  0  0  0
   -2.8266    2.3432   -1.9447 H   0  0  0  0  0  0  0  0  0  0  0  0
   -3.7135    5.5813   -0.9932 H   0  0  0  0  0  0  0  0  0  0  0  0
   -2.1173    5.6939   -1.7495 H   0  0  0  0  0  0  0  0  0  0  0  0
   -3.3199    4.5515   -2.3886 H   0  0  0  0  0  0  0  0  0  0  0  0
   -1.6116    3.8866    3.5998 H   0  0  0  0  0  0  0  0  0  0  0  0
   -0.4043    2.6013    3.3641 H   0  0  0  0  0  0  0  0  0  0  0  0
   -0.0364    4.2700    2.8848 H   0  0  0  0  0  0  0  0  0  0  0  0
   -1.0596    1.1091    1.7804 H   0  0  0  0  0  0  0  0  0  0  0  0
   -2.8516    5.9102    1.6923 H   0  0  0  0  0  0  0  0  0  0  0  0
   -1.0993    5.8669    1.9331 H   0  0  0  0  0  0  0  0  0  0  0  0
   -1.7703    6.3821    0.3737 H   0  0  0  0  0  0  0  0  0  0  0  0
   -2.2117   -3.6776    5.0037 H   0  0  0  0  0  0  0  0  0  0  0  0
   -1.3219   -2.2373    5.5989 H   0  0  0  0  0  0  0  0  0  0  0  0
   -3.0627   -2.4316    5.9655 H   0  0  0  0  0  0  0  0  0  0  0  0
  1  2  1  0  0  0  0
  1 59  1  0  0  0  0
  1 60  1  0  0  0  0
  1 61  1  0  0  0  0
  2  3  1  0  0  0  0
  3  4  2  0  0  0  0
  3 29  1  0  0  0  0
  4  5  1  0  0  0  0
  4 62  1  0  0  0  0
  5  6  1  0  0  0  0
  5 25  2  0  0  0  0
  6  7  1  0  0  0  0
  6 16  1  0  0  0  0
  7  8  2  0  0  0  0
  7 14  1  0  0  0  0
  8  9  1  0  0  0  0
  8 63  1  0  0  0  0
  9 10  1  0  0  0  0
  9 11  2  0  0  0  0
 10 64  1  0  0  0  0
 10 65  1  0  0  0  0
 10 66  1  0  0  0  0
 11 12  1  0  0  0  0
 11 15  1  0  0  0  0
 12 13  1  0  0  0  0
 12 14  2  0  0  0  0
 13 67  1  0  0  0  0
 13 68  1  0  0  0  0
 13 69  1  0  0  0  0
 14 70  1  0  0  0  0
 15 71  1  0  0  0  0
 15 72  1  0  0  0  0
 15 73  1  0  0  0  0
 16 17  2  0  0  0  0
 16 23  1  0  0  0  0
 17 18  1  0  0  0  0
 17 74  1  0  0  0  0
 18 19  1  0  0  0  0
 18 20  2  0  0  0  0
 19 75  1  0  0  0  0
 19 76  1  0  0  0  0
 19 77  1  0  0  0  0
 20 21  1  0  0  0  0
 20 24  1  0  0  0  0
 21 22  1  0  0  0  0
 21 23  2  0  0  0  0
 22 78  1  0  0  0  0
 22 79  1  0  0  0  0
 22 80  1  0  0  0  0
 23 81  1  0  0  0  0
 24 82  1  0  0  0  0
 24 83  1  0  0  0  0
 24 84  1  0  0  0  0
 25 26  1  0  0  0  0
 25 30  1  0  0  0  0
 26 27  1  0  0  0  0
 26 29  2  0  0  0  0
 27 28  1  0  0  0  0
 28 85  1  0  0  0  0
 28 86  1  0  0  0  0
 28 87  1  0  0  0  0
 29 88  1  0  0  0  0
 30 31  2  0  0  0  0
 30 37  1  0  0  0  0
 31 32  1  0  0  0  0
 31 34  1  0  0  0  0
 32 33  1  0  0  0  0
 33 89  1  0  0  0  0
 33 90  1  0  0  0  0
 33 91  1  0  0  0  0
 34 35  2  0  0  0  0
 34 92  1  0  0  0  0
 35 36  1  0  0  0  0
 35 57  1  0  0  0  0
 36 37  2  0  0  0  0
 36 93  1  0  0  0  0
 37 38  1  0  0  0  0
 38 39  1  0  0  0  0
 38 48  1  0  0  0  0
 39 40  2  0  0  0  0
 39 46  1  0  0  0  0
 40 41  1  0  0  0  0
 40 94  1  0  0  0  0
 41 42  1  0  0  0  0
 41 43  2  0  0  0  0
 42 95  1  0  0  0  0
 42 96  1  0  0  0  0
 42 97  1  0  0  0  0
 43 44  1  0  0  0  0
 43 47  1  0  0  0  0
 44 45  1  0  0  0  0
 44 46  2  0  0  0  0
 45 98  1  0  0  0  0
 45 99  1  0  0  0  0
 45100  1  0  0  0  0
 46101  1  0  0  0  0
 47102  1  0  0  0  0
 47103  1  0  0  0  0
 47104  1  0  0  0  0
 48 49  2  0  0  0  0
 48 55  1  0  0  0  0
 49 50  1  0  0  0  0
 49105  1  0  0  0  0
 50 51  1  0  0  0  0
 50 52  2  0  0  0  0
 51106  1  0  0  0  0
 51107  1  0  0  0  0
 51108  1  0  0  0  0
 52 53  1  0  0  0  0
 52 56  1  0  0  0  0
 53 54  1  0  0  0  0
 53 55  2  0  0  0  0
 54109  1  0  0  0  0
 54110  1  0  0  0  0
 54111  1  0  0  0  0
 55112  1  0  0  0  0
 56113  1  0  0  0  0
 56114  1  0  0  0  0
 56115  1  0  0  0  0
 57 58  1  0  0  0  0
 58116  1  0  0  0  0
 58117  1  0  0  0  0
 58118  1  0  0  0  0
M  END
$$$$
