Title Card Required
 OpenBabel03192317433D

 28 27  0  0  1  0  0  0  0  0999 V2000
    2.9246   -1.5865   -0.7098 C   0  0  0  0  0  0  0  0  0  0  0  0
    2.8857   -0.4024    0.2484 C   0  0  0  0  0  0  0  0  0  0  0  0
    2.0747    0.7902   -0.2586 C   0  0  1  0  0  0  0  0  0  0  0  0
    0.6358    0.4525   -0.6630 C   0  0  0  0  0  0  0  0  0  0  0  0
   -0.2006   -0.1490    0.4610 C   0  0  0  0  0  0  0  0  0  0  0  0
   -1.6328   -0.5149    0.0709 C   0  0  2  0  0  0  0  0  0  0  0  0
   -2.4822    0.6882   -0.3140 C   0  0  0  0  0  0  0  0  0  0  0  0
   -3.9102    0.3032   -0.6805 C   0  0  0  0  0  0  0  0  0  0  0  0
    2.1049    1.8429    0.6809 O   0  0  0  0  0  0  0  0  0  0  0  0
   -2.2874   -1.1448    1.1527 O   0  0  0  0  0  0  0  0  0  0  0  0
    1.9344   -2.0535   -0.8196 H   0  0  0  0  0  0  0  0  0  0  0  0
    3.6185   -2.3608   -0.3556 H   0  0  0  0  0  0  0  0  0  0  0  0
    3.2570   -1.2724   -1.7113 H   0  0  0  0  0  0  0  0  0  0  0  0
    2.4782   -0.7232    1.2240 H   0  0  0  0  0  0  0  0  0  0  0  0
    3.9042   -0.0382    0.4519 H   0  0  0  0  0  0  0  0  0  0  0  0
    2.5817    1.1900   -1.1524 H   0  0  0  0  0  0  0  0  0  0  0  0
    0.1787    1.3917   -1.0088 H   0  0  0  0  0  0  0  0  0  0  0  0
    0.6474   -0.2334   -1.5267 H   0  0  0  0  0  0  0  0  0  0  0  0
    0.2855   -1.0697    0.8322 H   0  0  0  0  0  0  0  0  0  0  0  0
   -0.2572    0.5458    1.3170 H   0  0  0  0  0  0  0  0  0  0  0  0
   -1.5917   -1.2005   -0.8024 H   0  0  0  0  0  0  0  0  0  0  0  0
   -2.4835    1.3853    0.5408 H   0  0  0  0  0  0  0  0  0  0  0  0
   -2.0017    1.2100   -1.1552 H   0  0  0  0  0  0  0  0  0  0  0  0
   -4.3925   -0.2105    0.1607 H   0  0  0  0  0  0  0  0  0  0  0  0
   -4.5072    1.1880   -0.9409 H   0  0  0  0  0  0  0  0  0  0  0  0
   -3.9226   -0.3785   -1.5446 H   0  0  0  0  0  0  0  0  0  0  0  0
    1.7658    1.5045    1.5172 H   0  0  0  0  0  0  0  0  0  0  0  0
   -1.8052   -1.9469    1.3785 H   0  0  0  0  0  0  0  0  0  0  0  0
  1  2  1  0  0  0  0
  1 11  1  0  0  0  0
  1 12  1  0  0  0  0
  1 13  1  0  0  0  0
  2  3  1  0  0  0  0
  2 14  1  0  0  0  0
  2 15  1  0  0  0  0
  3  4  1  0  0  0  0
  3  9  1  0  0  0  0
  3 16  1  6  0  0  0
  4  5  1  0  0  0  0
  4 17  1  0  0  0  0
  4 18  1  0  0  0  0
  5  6  1  0  0  0  0
  5 19  1  0  0  0  0
  5 20  1  0  0  0  0
  6  7  1  0  0  0  0
  6 10  1  0  0  0  0
  6 21  1  6  0  0  0
  7  8  1  0  0  0  0
  7 22  1  0  0  0  0
  7 23  1  0  0  0  0
  8 24  1  0  0  0  0
  8 25  1  0  0  0  0
  8 26  1  0  0  0  0
  9 27  1  0  0  0  0
 10 28  1  0  0  0  0
M  END
$$$$
