Title Card Required
 OpenBabel03192317493D

 60 62  0  0  1  0  0  0  0  0999 V2000
    2.2448    3.5799   -1.0069 C   0  0  0  0  0  0  0  0  0  0  0  0
   -3.2486    3.1842   -0.1262 C   0  0  0  0  0  0  0  0  0  0  0  0
    1.8260    1.5323    0.5247 C   0  0  1  0  0  0  0  0  0  0  0  0
    3.1180    1.6027    1.3804 C   0  0  0  0  0  0  0  0  0  0  0  0
    4.0578    0.3964    1.1316 C   0  0  0  0  0  0  0  0  0  0  0  0
    3.3600   -0.6937    0.2963 C   0  0  2  0  0  0  0  0  0  0  0  0
    1.3656    2.9174    0.0500 C   0  0  0  0  0  0  0  0  0  0  0  0
    0.9416   -0.8832   -1.2873 C   0  0  0  0  0  0  0  0  0  0  0  0
   -0.4422   -0.8516   -1.0771 C   0  0  0  0  0  0  0  0  0  0  0  0
   -2.9004    0.7443   -0.9293 C   0  0  1  0  0  0  0  0  0  0  0  0
   -3.9362    0.1582    0.0489 C   0  0  0  0  0  0  0  0  0  0  0  0
   -3.3681    0.2179    1.4711 C   0  0  0  0  0  0  0  0  0  0  0  0
   -1.9313   -0.3334    1.4295 C   0  0  2  0  0  0  0  0  0  0  0  0
   -3.1449    2.2165   -1.2999 C   0  0  0  0  0  0  0  0  0  0  0  0
   -1.2114    0.5233   -0.1061 P   0  0  1  0  0  0  0  0  0  0  0  0
    2.2767    0.3360   -0.8552 P   0  0  1  0  0  0  0  0  0  0  0  0
   -1.8802   -1.8640    1.4944 C   0  0  0  0  0  0  0  0  0  0  0  0
    2.6892   -1.7849    1.1385 C   0  0  0  0  0  0  0  0  0  0  0  0
    1.4785   -1.9442   -2.0469 C   0  0  0  0  0  0  0  0  0  0  0  0
    0.6870   -2.9630   -2.5604 C   0  0  0  0  0  0  0  0  0  0  0  0
   -0.6935   -2.9283   -2.3517 C   0  0  0  0  0  0  0  0  0  0  0  0
   -1.2379   -1.8757   -1.6251 C   0  0  0  0  0  0  0  0  0  0  0  0
   -2.1230   -2.3894    2.9069 C   0  0  0  0  0  0  0  0  0  0  0  0
    1.6445   -1.3122    2.1436 C   0  0  0  0  0  0  0  0  0  0  0  0
    3.3023    3.6156   -0.7017 H   0  0  0  0  0  0  0  0  0  0  0  0
    1.9188    4.6139   -1.1884 H   0  0  0  0  0  0  0  0  0  0  0  0
    2.2013    3.0367   -1.9611 H   0  0  0  0  0  0  0  0  0  0  0  0
   -2.3398    3.1562    0.4956 H   0  0  0  0  0  0  0  0  0  0  0  0
   -3.3769    4.2156   -0.4833 H   0  0  0  0  0  0  0  0  0  0  0  0
   -4.1107    2.9495    0.5162 H   0  0  0  0  0  0  0  0  0  0  0  0
    1.0212    1.1045    1.1355 H   0  0  0  0  0  0  0  0  0  0  0  0
    3.6559    2.5335    1.1495 H   0  0  0  0  0  0  0  0  0  0  0  0
    2.8328    1.6742    2.4407 H   0  0  0  0  0  0  0  0  0  0  0  0
    4.9496    0.7397    0.5876 H   0  0  0  0  0  0  0  0  0  0  0  0
    4.4184   -0.0336    2.0793 H   0  0  0  0  0  0  0  0  0  0  0  0
    4.1141   -1.1897   -0.3336 H   0  0  0  0  0  0  0  0  0  0  0  0
    1.3106    3.5667    0.9413 H   0  0  0  0  0  0  0  0  0  0  0  0
    0.3345    2.8327   -0.3274 H   0  0  0  0  0  0  0  0  0  0  0  0
   -2.8976    0.1767   -1.8703 H   0  0  0  0  0  0  0  0  0  0  0  0
   -4.9011    0.6859   -0.0261 H   0  0  0  0  0  0  0  0  0  0  0  0
   -4.1355   -0.8940   -0.2120 H   0  0  0  0  0  0  0  0  0  0  0  0
   -3.3526    1.2608    1.8209 H   0  0  0  0  0  0  0  0  0  0  0  0
   -3.9904   -0.3475    2.1828 H   0  0  0  0  0  0  0  0  0  0  0  0
   -1.3595    0.0570    2.2875 H   0  0  0  0  0  0  0  0  0  0  0  0
   -2.3322    2.5436   -1.9687 H   0  0  0  0  0  0  0  0  0  0  0  0
   -4.0728    2.2695   -1.8950 H   0  0  0  0  0  0  0  0  0  0  0  0
   -2.6243   -2.2930    0.8036 H   0  0  0  0  0  0  0  0  0  0  0  0
   -0.9043   -2.2277    1.1368 H   0  0  0  0  0  0  0  0  0  0  0  0
    2.2298   -2.5273    0.4664 H   0  0  0  0  0  0  0  0  0  0  0  0
    3.4924   -2.3182    1.6769 H   0  0  0  0  0  0  0  0  0  0  0  0
    2.5534   -1.9586   -2.2498 H   0  0  0  0  0  0  0  0  0  0  0  0
    1.1430   -3.7701   -3.1362 H   0  0  0  0  0  0  0  0  0  0  0  0
   -1.3394   -3.7090   -2.7562 H   0  0  0  0  0  0  0  0  0  0  0  0
   -2.3180   -1.8501   -1.4689 H   0  0  0  0  0  0  0  0  0  0  0  0
   -3.0916   -2.0543    3.3065 H   0  0  0  0  0  0  0  0  0  0  0  0
   -2.1152   -3.4881    2.9302 H   0  0  0  0  0  0  0  0  0  0  0  0
   -1.3397   -2.0313    3.5924 H   0  0  0  0  0  0  0  0  0  0  0  0
    0.7540   -0.9146    1.6332 H   0  0  0  0  0  0  0  0  0  0  0  0
    1.3145   -2.1466    2.7795 H   0  0  0  0  0  0  0  0  0  0  0  0
    2.0370   -0.5246    2.8050 H   0  0  0  0  0  0  0  0  0  0  0  0
  1  7  1  0  0  0  0
  1 25  1  0  0  0  0
  1 26  1  0  0  0  0
  1 27  1  0  0  0  0
  2 14  1  0  0  0  0
  2 28  1  0  0  0  0
  2 29  1  0  0  0  0
  2 30  1  0  0  0  0
  3  4  1  0  0  0  0
  3  7  1  0  0  0  0
  3 16  1  0  0  0  0
  3 31  1  1  0  0  0
  4  5  1  0  0  0  0
  4 32  1  0  0  0  0
  4 33  1  0  0  0  0
  5  6  1  0  0  0  0
  5 34  1  0  0  0  0
  5 35  1  0  0  0  0
  6 16  1  0  0  0  0
  6 18  1  0  0  0  0
  6 36  1  6  0  0  0
  7 37  1  0  0  0  0
  7 38  1  0  0  0  0
  8  9  2  0  0  0  0
  8 19  1  0  0  0  0
  9 22  1  0  0  0  0
 10 11  1  0  0  0  0
 10 14  1  0  0  0  0
 10 15  1  0  0  0  0
 10 39  1  6  0  0  0
 11 12  1  0  0  0  0
 11 40  1  0  0  0  0
 11 41  1  0  0  0  0
 12 13  1  0  0  0  0
 12 42  1  0  0  0  0
 12 43  1  0  0  0  0
 13 15  1  0  0  0  0
 13 17  1  0  0  0  0
 13 44  1  1  0  0  0
 14 45  1  0  0  0  0
 14 46  1  0  0  0  0
 15  9  1  6  0  0  0
 16  8  1  1  0  0  0
 17 23  1  0  0  0  0
 17 47  1  0  0  0  0
 17 48  1  0  0  0  0
 18 24  1  0  0  0  0
 18 49  1  0  0  0  0
 18 50  1  0  0  0  0
 19 20  2  0  0  0  0
 19 51  1  0  0  0  0
 20 21  1  0  0  0  0
 20 52  1  0  0  0  0
 21 22  2  0  0  0  0
 21 53  1  0  0  0  0
 22 54  1  0  0  0  0
 23 55  1  0  0  0  0
 23 56  1  0  0  0  0
 23 57  1  0  0  0  0
 24 58  1  0  0  0  0
 24 59  1  0  0  0  0
 24 60  1  0  0  0  0
M  END
$$$$
