Title Card Required
 OpenBabel03192317493D

 60 62  0  0  1  0  0  0  0  0999 V2000
    2.4891    2.2765   -1.7671 C   0  0  0  0  0  0  0  0  0  0  0  0
   -1.7464   -3.4384    1.8266 C   0  0  0  0  0  0  0  0  0  0  0  0
    1.5793   -0.1618   -1.9421 C   0  0  1  0  0  0  0  0  0  0  0  0
    1.4209    1.3216   -2.2913 C   0  0  0  0  0  0  0  0  0  0  0  0
    3.3665   -0.3009    0.0768 C   0  0  1  0  0  0  0  0  0  0  0  0
    3.9949   -0.6893   -1.2826 C   0  0  0  0  0  0  0  0  0  0  0  0
    2.9190   -0.7798   -2.3955 C   0  0  0  0  0  0  0  0  0  0  0  0
    0.6801    0.6959    0.7566 C   0  0  0  0  0  0  0  0  0  0  0  0
   -0.7046    0.9242    0.5556 C   0  0  0  0  0  0  0  0  0  0  0  0
   -1.5597   -1.9928    1.3742 C   0  0  0  0  0  0  0  0  0  0  0  0
   -1.6551   -1.8120   -0.1420 C   0  0  1  0  0  0  0  0  0  0  0  0
   -2.9993   -2.2464   -0.7431 C   0  0  0  0  0  0  0  0  0  0  0  0
   -4.0700   -1.2401   -0.2918 C   0  0  0  0  0  0  0  0  0  0  0  0
   -3.4461    0.1784   -0.1887 C   0  0  1  0  0  0  0  0  0  0  0  0
   -1.6500   -0.0223   -0.7251 P   0  0  1  0  0  0  0  0  0  0  0  0
    1.5449   -0.6778   -0.1314 P   0  0  1  0  0  0  0  0  0  0  0  0
    5.4625   -0.6805    1.4733 C   0  0  0  0  0  0  0  0  0  0  0  0
    3.9913   -1.0276    1.2690 C   0  0  0  0  0  0  0  0  0  0  0  0
   -4.1763    1.2409   -1.0134 C   0  0  0  0  0  0  0  0  0  0  0  0
   -5.5711    1.5551   -0.4831 C   0  0  0  0  0  0  0  0  0  0  0  0
    1.3573    1.4576    1.7185 C   0  0  0  0  0  0  0  0  0  0  0  0
    0.7176    2.4694    2.4324 C   0  0  0  0  0  0  0  0  0  0  0  0
   -0.6245    2.7386    2.1868 C   0  0  0  0  0  0  0  0  0  0  0  0
   -1.3218    1.9693    1.2569 C   0  0  0  0  0  0  0  0  0  0  0  0
    2.4259    2.3928   -0.6761 H   0  0  0  0  0  0  0  0  0  0  0  0
    2.3560    3.2743   -2.2088 H   0  0  0  0  0  0  0  0  0  0  0  0
    3.5050    1.9368   -2.0224 H   0  0  0  0  0  0  0  0  0  0  0  0
   -1.0468   -4.1057    1.3002 H   0  0  0  0  0  0  0  0  0  0  0  0
   -1.5593   -3.5397    2.9049 H   0  0  0  0  0  0  0  0  0  0  0  0
   -2.7668   -3.8014    1.6346 H   0  0  0  0  0  0  0  0  0  0  0  0
    0.7546   -0.6938   -2.4402 H   0  0  0  0  0  0  0  0  0  0  0  0
    0.4291    1.6606   -1.9537 H   0  0  0  0  0  0  0  0  0  0  0  0
    1.3983    1.3826   -3.3937 H   0  0  0  0  0  0  0  0  0  0  0  0
    3.4871    0.7835    0.2206 H   0  0  0  0  0  0  0  0  0  0  0  0
    4.4991   -1.6632   -1.1810 H   0  0  0  0  0  0  0  0  0  0  0  0
    4.7798    0.0345   -1.5470 H   0  0  0  0  0  0  0  0  0  0  0  0
    2.7483   -1.8384   -2.6392 H   0  0  0  0  0  0  0  0  0  0  0  0
    3.2583   -0.2967   -3.3252 H   0  0  0  0  0  0  0  0  0  0  0  0
   -0.5710   -1.6366    1.7013 H   0  0  0  0  0  0  0  0  0  0  0  0
   -2.2955   -1.3442    1.8802 H   0  0  0  0  0  0  0  0  0  0  0  0
   -0.8268   -2.3552   -0.6230 H   0  0  0  0  0  0  0  0  0  0  0  0
   -2.9163   -2.2266   -1.8417 H   0  0  0  0  0  0  0  0  0  0  0  0
   -3.2599   -3.2786   -0.4662 H   0  0  0  0  0  0  0  0  0  0  0  0
   -4.9182   -1.2406   -0.9934 H   0  0  0  0  0  0  0  0  0  0  0  0
   -4.4753   -1.5389    0.6866 H   0  0  0  0  0  0  0  0  0  0  0  0
   -3.4553    0.4870    0.8686 H   0  0  0  0  0  0  0  0  0  0  0  0
    5.5914    0.4004    1.6384 H   0  0  0  0  0  0  0  0  0  0  0  0
    5.8828   -1.2061    2.3422 H   0  0  0  0  0  0  0  0  0  0  0  0
    6.0634   -0.9554    0.5936 H   0  0  0  0  0  0  0  0  0  0  0  0
    3.4259   -0.7872    2.1852 H   0  0  0  0  0  0  0  0  0  0  0  0
    3.8718   -2.1141    1.1205 H   0  0  0  0  0  0  0  0  0  0  0  0
   -3.5753    2.1660   -1.0364 H   0  0  0  0  0  0  0  0  0  0  0  0
   -4.2314    0.8969   -2.0602 H   0  0  0  0  0  0  0  0  0  0  0  0
   -5.5190    1.9457    0.5450 H   0  0  0  0  0  0  0  0  0  0  0  0
   -6.0779    2.3072   -1.1038 H   0  0  0  0  0  0  0  0  0  0  0  0
   -6.2043    0.6554   -0.4629 H   0  0  0  0  0  0  0  0  0  0  0  0
    2.4139    1.2671    1.9159 H   0  0  0  0  0  0  0  0  0  0  0  0
    1.2742    3.0502    3.1694 H   0  0  0  0  0  0  0  0  0  0  0  0
   -1.1363    3.5404    2.7214 H   0  0  0  0  0  0  0  0  0  0  0  0
   -2.3743    2.1968    1.0787 H   0  0  0  0  0  0  0  0  0  0  0  0
  1  4  1  0  0  0  0
  1 25  1  0  0  0  0
  1 26  1  0  0  0  0
  1 27  1  0  0  0  0
  2 10  1  0  0  0  0
  2 28  1  0  0  0  0
  2 29  1  0  0  0  0
  2 30  1  0  0  0  0
  3  4  1  0  0  0  0
  3  7  1  0  0  0  0
  3 16  1  0  0  0  0
  3 31  1  6  0  0  0
  4 32  1  0  0  0  0
  4 33  1  0  0  0  0
  5  6  1  0  0  0  0
  5 16  1  0  0  0  0
  5 18  1  0  0  0  0
  5 34  1  1  0  0  0
  6  7  1  0  0  0  0
  6 35  1  0  0  0  0
  6 36  1  0  0  0  0
  7 37  1  0  0  0  0
  7 38  1  0  0  0  0
  8  9  2  0  0  0  0
  8 21  1  0  0  0  0
  9 24  1  0  0  0  0
 10 11  1  0  0  0  0
 10 39  1  0  0  0  0
 10 40  1  0  0  0  0
 11 12  1  0  0  0  0
 11 15  1  0  0  0  0
 11 41  1  6  0  0  0
 12 13  1  0  0  0  0
 12 42  1  0  0  0  0
 12 43  1  0  0  0  0
 13 14  1  0  0  0  0
 13 44  1  0  0  0  0
 13 45  1  0  0  0  0
 14 15  1  0  0  0  0
 14 19  1  0  0  0  0
 14 46  1  1  0  0  0
 15  9  1  1  0  0  0
 16  8  1  1  0  0  0
 17 18  1  0  0  0  0
 17 47  1  0  0  0  0
 17 48  1  0  0  0  0
 17 49  1  0  0  0  0
 18 50  1  0  0  0  0
 18 51  1  0  0  0  0
 19 20  1  0  0  0  0
 19 52  1  0  0  0  0
 19 53  1  0  0  0  0
 20 54  1  0  0  0  0
 20 55  1  0  0  0  0
 20 56  1  0  0  0  0
 21 22  2  0  0  0  0
 21 57  1  0  0  0  0
 22 23  1  0  0  0  0
 22 58  1  0  0  0  0
 23 24  2  0  0  0  0
 23 59  1  0  0  0  0
 24 60  1  0  0  0  0
M  END
$$$$
