Title Card Required
 OpenBabel03192317403D

102109  0  0  0  0  0  0  0  0999 V2000
   -0.1661   -1.5796    0.9477 C   0  0  0  0  0  0  0  0  0  0  0  0
   -1.2747   -0.7562    1.0426 C   0  0  0  0  0  0  0  0  0  0  0  0
   -1.9576   -0.6355    2.2892 C   0  0  0  0  0  0  0  0  0  0  0  0
   -1.5306   -1.3075    3.4008 C   0  0  0  0  0  0  0  0  0  0  0  0
   -0.3917   -2.1585    3.3388 C   0  0  0  0  0  0  0  0  0  0  0  0
    0.0697   -2.8664    4.4796 C   0  0  0  0  0  0  0  0  0  0  0  0
    1.1653   -3.6915    4.3999 C   0  0  0  0  0  0  0  0  0  0  0  0
    1.8455   -3.8466    3.1691 C   0  0  0  0  0  0  0  0  0  0  0  0
    1.4207   -3.1732    2.0477 C   0  0  0  0  0  0  0  0  0  0  0  0
    0.2941   -2.3063    2.1010 C   0  0  0  0  0  0  0  0  0  0  0  0
    0.5472   -1.8091   -0.3499 C   0  0  0  0  0  0  0  0  0  0  0  0
    1.7096   -1.1273   -0.6715 C   0  0  0  0  0  0  0  0  0  0  0  0
    2.3785   -1.4139   -1.8964 C   0  0  0  0  0  0  0  0  0  0  0  0
    1.8926   -2.3559   -2.7638 C   0  0  0  0  0  0  0  0  0  0  0  0
    0.7104   -3.0836   -2.4574 C   0  0  0  0  0  0  0  0  0  0  0  0
    0.1974   -4.0753   -3.3355 C   0  0  0  0  0  0  0  0  0  0  0  0
   -0.9373   -4.7805   -3.0151 C   0  0  0  0  0  0  0  0  0  0  0  0
   -1.6083   -4.5246   -1.7950 C   0  0  0  0  0  0  0  0  0  0  0  0
   -1.1382   -3.5666   -0.9273 C   0  0  0  0  0  0  0  0  0  0  0  0
    0.0305   -2.8142   -1.2353 C   0  0  0  0  0  0  0  0  0  0  0  0
    2.3508    0.1528    0.5089 P   0  0  0  0  0  0  0  0  0  0  0  0
    4.1379    0.1627    0.0436 C   0  0  0  0  0  0  0  0  0  0  0  0
    4.7286    1.1125   -0.7953 C   0  0  0  0  0  0  0  0  0  0  0  0
    6.0950    1.0560   -1.0912 C   0  0  0  0  0  0  0  0  0  0  0  0
    6.8590    0.0233   -0.5406 C   0  0  0  0  0  0  0  0  0  0  0  0
    6.2946   -0.9413    0.2999 C   0  0  0  0  0  0  0  0  0  0  0  0
    4.9319   -0.8495    0.5949 C   0  0  0  0  0  0  0  0  0  0  0  0
    6.7405    2.0861   -1.9823 C   0  0  0  0  0  0  0  0  0  0  0  0
    7.1379   -2.0563    0.8619 C   0  0  0  0  0  0  0  0  0  0  0  0
    1.7346    1.6966   -0.2882 C   0  0  0  0  0  0  0  0  0  0  0  0
    1.9936    2.9110    0.3699 C   0  0  0  0  0  0  0  0  0  0  0  0
    1.4654    4.1104   -0.1024 C   0  0  0  0  0  0  0  0  0  0  0  0
    0.6331    4.0774   -1.2311 C   0  0  0  0  0  0  0  0  0  0  0  0
    0.3640    2.8906   -1.9056 C   0  0  0  0  0  0  0  0  0  0  0  0
    0.9436    1.7020   -1.4351 C   0  0  0  0  0  0  0  0  0  0  0  0
    1.7223    5.4182    0.5981 C   0  0  0  0  0  0  0  0  0  0  0  0
   -0.5472    2.8528   -3.1030 C   0  0  0  0  0  0  0  0  0  0  0  0
   -1.8848    0.1673   -0.4518 P   0  0  0  0  0  0  0  0  0  0  0  0
   -3.6593   -0.3610   -0.4440 C   0  0  0  0  0  0  0  0  0  0  0  0
   -4.6677    0.2328    0.3229 C   0  0  0  0  0  0  0  0  0  0  0  0
   -5.9777   -0.2548    0.2888 C   0  0  0  0  0  0  0  0  0  0  0  0
   -6.2634   -1.3519   -0.5300 C   0  0  0  0  0  0  0  0  0  0  0  0
   -5.2797   -1.9596   -1.3148 C   0  0  0  0  0  0  0  0  0  0  0  0
   -3.9811   -1.4439   -1.2700 C   0  0  0  0  0  0  0  0  0  0  0  0
   -7.0616    0.3743    1.1262 C   0  0  0  0  0  0  0  0  0  0  0  0
   -5.6166   -3.1381   -2.1918 C   0  0  0  0  0  0  0  0  0  0  0  0
   -2.0027    1.8818    0.2162 C   0  0  0  0  0  0  0  0  0  0  0  0
   -1.2490    2.3236    1.3019 C   0  0  0  0  0  0  0  0  0  0  0  0
   -1.2877    3.6648    1.7114 C   0  0  0  0  0  0  0  0  0  0  0  0
   -2.0759    4.5628    0.9956 C   0  0  0  0  0  0  0  0  0  0  0  0
   -2.8256    4.1525   -0.1177 C   0  0  0  0  0  0  0  0  0  0  0  0
   -2.7826    2.8118   -0.4922 C   0  0  0  0  0  0  0  0  0  0  0  0
   -0.4766    4.0976    2.9037 C   0  0  0  0  0  0  0  0  0  0  0  0
   -3.6347    5.1537   -0.9011 C   0  0  0  0  0  0  0  0  0  0  0  0
   -2.8341    0.0127    2.3478 H   0  0  0  0  0  0  0  0  0  0  0  0
   -2.0602   -1.2037    4.3502 H   0  0  0  0  0  0  0  0  0  0  0  0
   -0.4646   -2.7413    5.4238 H   0  0  0  0  0  0  0  0  0  0  0  0
    1.5113   -4.2307    5.2831 H   0  0  0  0  0  0  0  0  0  0  0  0
    2.7114   -4.5078    3.1103 H   0  0  0  0  0  0  0  0  0  0  0  0
    1.9484   -3.3001    1.1013 H   0  0  0  0  0  0  0  0  0  0  0  0
    3.2909   -0.8669   -2.1419 H   0  0  0  0  0  0  0  0  0  0  0  0
    2.4118   -2.5641   -3.7017 H   0  0  0  0  0  0  0  0  0  0  0  0
    0.7257   -4.2676   -4.2716 H   0  0  0  0  0  0  0  0  0  0  0  0
   -1.3215   -5.5407   -3.6970 H   0  0  0  0  0  0  0  0  0  0  0  0
   -2.5052   -5.0920   -1.5404 H   0  0  0  0  0  0  0  0  0  0  0  0
   -1.6666   -3.3729    0.0078 H   0  0  0  0  0  0  0  0  0  0  0  0
    4.1192    1.9093   -1.2290 H   0  0  0  0  0  0  0  0  0  0  0  0
    7.9284   -0.0275   -0.7675 H   0  0  0  0  0  0  0  0  0  0  0  0
    4.4788   -1.5809    1.2723 H   0  0  0  0  0  0  0  0  0  0  0  0
    7.4910    2.6688   -1.4273 H   0  0  0  0  0  0  0  0  0  0  0  0
    7.2572    1.6088   -2.8279 H   0  0  0  0  0  0  0  0  0  0  0  0
    5.9975    2.7864   -2.3854 H   0  0  0  0  0  0  0  0  0  0  0  0
    7.3151   -2.8325    0.1014 H   0  0  0  0  0  0  0  0  0  0  0  0
    8.1194   -1.6866    1.1901 H   0  0  0  0  0  0  0  0  0  0  0  0
    6.6453   -2.5349    1.7186 H   0  0  0  0  0  0  0  0  0  0  0  0
    2.6122    2.9143    1.2736 H   0  0  0  0  0  0  0  0  0  0  0  0
    0.1745    5.0075   -1.5808 H   0  0  0  0  0  0  0  0  0  0  0  0
    0.7252    0.7699   -1.9594 H   0  0  0  0  0  0  0  0  0  0  0  0
    2.1571    6.1571   -0.0913 H   0  0  0  0  0  0  0  0  0  0  0  0
    0.7783    5.8397    0.9792 H   0  0  0  0  0  0  0  0  0  0  0  0
    2.4100    5.2945    1.4454 H   0  0  0  0  0  0  0  0  0  0  0  0
   -1.1442    3.7721   -3.1778 H   0  0  0  0  0  0  0  0  0  0  0  0
    0.0264    2.7388   -4.0361 H   0  0  0  0  0  0  0  0  0  0  0  0
   -1.2336    1.9949   -3.0319 H   0  0  0  0  0  0  0  0  0  0  0  0
   -4.4363    1.0993    0.9484 H   0  0  0  0  0  0  0  0  0  0  0  0
   -7.2872   -1.7374   -0.5652 H   0  0  0  0  0  0  0  0  0  0  0  0
   -3.2036   -1.8912   -1.8961 H   0  0  0  0  0  0  0  0  0  0  0  0
   -7.9597    0.5771    0.5252 H   0  0  0  0  0  0  0  0  0  0  0  0
   -7.3607   -0.2944    1.9477 H   0  0  0  0  0  0  0  0  0  0  0  0
   -6.7235    1.3207    1.5680 H   0  0  0  0  0  0  0  0  0  0  0  0
   -5.9101   -4.0080   -1.5846 H   0  0  0  0  0  0  0  0  0  0  0  0
   -6.4586   -2.9070   -2.8603 H   0  0  0  0  0  0  0  0  0  0  0  0
   -4.7571   -3.4297   -2.8098 H   0  0  0  0  0  0  0  0  0  0  0  0
   -0.6105    1.6248    1.8494 H   0  0  0  0  0  0  0  0  0  0  0  0
   -2.1122    5.6113    1.3072 H   0  0  0  0  0  0  0  0  0  0  0  0
   -3.3714    2.4807   -1.3537 H   0  0  0  0  0  0  0  0  0  0  0  0
   -0.5985    5.1694    3.1099 H   0  0  0  0  0  0  0  0  0  0  0  0
   -0.7727    3.5381    3.8033 H   0  0  0  0  0  0  0  0  0  0  0  0
    0.5920    3.8955    2.7324 H   0  0  0  0  0  0  0  0  0  0  0  0
   -4.2217    5.8019   -0.2347 H   0  0  0  0  0  0  0  0  0  0  0  0
   -2.9770    5.8068   -1.4965 H   0  0  0  0  0  0  0  0  0  0  0  0
   -4.3262    4.6548   -1.5927 H   0  0  0  0  0  0  0  0  0  0  0  0
  1  2  2  0  0  0  0
  1 10  1  0  0  0  0
  1 11  1  0  0  0  0
  2  3  1  0  0  0  0
  2 38  1  0  0  0  0
  3  4  2  0  0  0  0
  3 55  1  0  0  0  0
  4  5  1  0  0  0  0
  4 56  1  0  0  0  0
  5  6  2  0  0  0  0
  5 10  1  0  0  0  0
  6  7  1  0  0  0  0
  6 57  1  0  0  0  0
  7  8  2  0  0  0  0
  7 58  1  0  0  0  0
  8  9  1  0  0  0  0
  8 59  1  0  0  0  0
  9 10  2  0  0  0  0
  9 60  1  0  0  0  0
 11 12  2  0  0  0  0
 11 20  1  0  0  0  0
 12 13  1  0  0  0  0
 12 21  1  0  0  0  0
 13 14  2  0  0  0  0
 13 61  1  0  0  0  0
 14 15  1  0  0  0  0
 14 62  1  0  0  0  0
 15 16  2  0  0  0  0
 15 20  1  0  0  0  0
 16 17  1  0  0  0  0
 16 63  1  0  0  0  0
 17 18  2  0  0  0  0
 17 64  1  0  0  0  0
 18 19  1  0  0  0  0
 18 65  1  0  0  0  0
 19 20  2  0  0  0  0
 19 66  1  0  0  0  0
 21 22  1  0  0  0  0
 21 30  1  0  0  0  0
 22 23  2  0  0  0  0
 22 27  1  0  0  0  0
 23 24  1  0  0  0  0
 23 67  1  0  0  0  0
 24 25  2  0  0  0  0
 24 28  1  0  0  0  0
 25 26  1  0  0  0  0
 25 68  1  0  0  0  0
 26 27  2  0  0  0  0
 26 29  1  0  0  0  0
 27 69  1  0  0  0  0
 28 70  1  0  0  0  0
 28 71  1  0  0  0  0
 28 72  1  0  0  0  0
 29 73  1  0  0  0  0
 29 74  1  0  0  0  0
 29 75  1  0  0  0  0
 30 31  2  0  0  0  0
 30 35  1  0  0  0  0
 31 32  1  0  0  0  0
 31 76  1  0  0  0  0
 32 33  2  0  0  0  0
 32 36  1  0  0  0  0
 33 34  1  0  0  0  0
 33 77  1  0  0  0  0
 34 35  2  0  0  0  0
 34 37  1  0  0  0  0
 35 78  1  0  0  0  0
 36 79  1  0  0  0  0
 36 80  1  0  0  0  0
 36 81  1  0  0  0  0
 37 82  1  0  0  0  0
 37 83  1  0  0  0  0
 37 84  1  0  0  0  0
 38 39  1  0  0  0  0
 38 47  1  0  0  0  0
 39 40  2  0  0  0  0
 39 44  1  0  0  0  0
 40 41  1  0  0  0  0
 40 85  1  0  0  0  0
 41 42  2  0  0  0  0
 41 45  1  0  0  0  0
 42 43  1  0  0  0  0
 42 86  1  0  0  0  0
 43 44  2  0  0  0  0
 43 46  1  0  0  0  0
 44 87  1  0  0  0  0
 45 88  1  0  0  0  0
 45 89  1  0  0  0  0
 45 90  1  0  0  0  0
 46 91  1  0  0  0  0
 46 92  1  0  0  0  0
 46 93  1  0  0  0  0
 47 48  2  0  0  0  0
 47 52  1  0  0  0  0
 48 49  1  0  0  0  0
 48 94  1  0  0  0  0
 49 50  2  0  0  0  0
 49 53  1  0  0  0  0
 50 51  1  0  0  0  0
 50 95  1  0  0  0  0
 51 52  2  0  0  0  0
 51 54  1  0  0  0  0
 52 96  1  0  0  0  0
 53 97  1  0  0  0  0
 53 98  1  0  0  0  0
 53 99  1  0  0  0  0
 54100  1  0  0  0  0
 54101  1  0  0  0  0
 54102  1  0  0  0  0
M  END
$$$$
