Title Card Required
 OpenBabel03192317553D

 89 97  0  0  1  0  0  0  0  0999 V2000
   -1.0296    0.1562    1.6350 O   0  0  0  0  0  0  0  0  0  0  0  0
    0.0326    0.8723    2.2588 C   0  0  0  0  0  0  0  0  0  0  0  0
    1.1447    0.6744    1.4135 O   0  0  0  0  0  0  0  0  0  0  0  0
    0.6854    0.5081    0.0964 C   0  0  2  0  0  0  0  0  0  0  0  0
   -0.7168   -0.1280    0.2900 C   0  0  2  0  0  0  0  0  0  0  0  0
   -0.2822    2.3569    2.3723 C   0  0  0  0  0  0  0  0  0  0  0  0
    0.3157    0.2421    3.6079 C   0  0  0  0  0  0  0  0  0  0  0  0
    1.7239   -0.2976   -0.7410 C   0  0  0  0  0  0  0  0  0  0  0  0
    1.2889   -0.2500   -2.0872 O   0  0  0  0  0  0  0  0  0  0  0  0
    3.9888    0.2585    0.2887 C   0  0  0  0  0  0  0  0  0  0  0  0
    3.0473    0.4699   -0.6914 C   0  0  0  0  0  0  0  0  0  0  0  0
    3.2750    1.4808   -1.6664 C   0  0  0  0  0  0  0  0  0  0  0  0
    4.4151    2.2427   -1.6360 C   0  0  0  0  0  0  0  0  0  0  0  0
    5.3978    2.0467   -0.6299 C   0  0  0  0  0  0  0  0  0  0  0  0
    6.5878    2.8217   -0.5694 C   0  0  0  0  0  0  0  0  0  0  0  0
    7.5161    2.6044    0.4186 C   0  0  0  0  0  0  0  0  0  0  0  0
    7.2989    1.5974    1.3935 C   0  0  0  0  0  0  0  0  0  0  0  0
    6.1594    0.8318    1.3574 C   0  0  0  0  0  0  0  0  0  0  0  0
    5.1778    1.0350    0.3477 C   0  0  0  0  0  0  0  0  0  0  0  0
    2.0751   -2.7198   -1.2801 C   0  0  0  0  0  0  0  0  0  0  0  0
    1.8848   -1.7600   -0.3092 C   0  0  0  0  0  0  0  0  0  0  0  0
    1.8643   -2.1680    1.0568 C   0  0  0  0  0  0  0  0  0  0  0  0
    2.0030   -3.4899    1.3996 C   0  0  0  0  0  0  0  0  0  0  0  0
    2.1803   -4.4940    0.4109 C   0  0  0  0  0  0  0  0  0  0  0  0
    2.3181   -5.8705    0.7356 C   0  0  0  0  0  0  0  0  0  0  0  0
    2.4931   -6.8075   -0.2531 C   0  0  0  0  0  0  0  0  0  0  0  0
    2.5404   -6.4113   -1.6135 C   0  0  0  0  0  0  0  0  0  0  0  0
    2.4096   -5.0874   -1.9554 C   0  0  0  0  0  0  0  0  0  0  0  0
    2.2235   -4.0951   -0.9540 C   0  0  0  0  0  0  0  0  0  0  0  0
   -1.8322    0.3697   -0.6754 C   0  0  0  0  0  0  0  0  0  0  0  0
   -1.3546    0.2417   -1.9996 O   0  0  0  0  0  0  0  0  0  0  0  0
   -3.3006   -1.4252    0.4041 C   0  0  0  0  0  0  0  0  0  0  0  0
   -3.0669   -0.5255   -0.6079 C   0  0  0  0  0  0  0  0  0  0  0  0
   -4.0208   -0.3865   -1.6563 C   0  0  0  0  0  0  0  0  0  0  0  0
   -5.1635   -1.1410   -1.6689 C   0  0  0  0  0  0  0  0  0  0  0  0
   -5.4276   -2.0840   -0.6360 C   0  0  0  0  0  0  0  0  0  0  0  0
   -6.5995   -2.8866   -0.6213 C   0  0  0  0  0  0  0  0  0  0  0  0
   -6.8191   -3.7890    0.3916 C   0  0  0  0  0  0  0  0  0  0  0  0
   -5.8754   -3.9298    1.4388 C   0  0  0  0  0  0  0  0  0  0  0  0
   -4.7341   -3.1646    1.4502 C   0  0  0  0  0  0  0  0  0  0  0  0
   -4.4799   -2.2241    0.4160 C   0  0  0  0  0  0  0  0  0  0  0  0
   -1.7889    2.8672   -1.1200 C   0  0  0  0  0  0  0  0  0  0  0  0
   -2.2394    1.8117   -0.3613 C   0  0  0  0  0  0  0  0  0  0  0  0
   -3.0970    2.0761    0.7450 C   0  0  0  0  0  0  0  0  0  0  0  0
   -3.4477    3.3596    1.0721 C   0  0  0  0  0  0  0  0  0  0  0  0
   -2.9632    4.4670    0.3225 C   0  0  0  0  0  0  0  0  0  0  0  0
   -3.2935    5.8105    0.6467 C   0  0  0  0  0  0  0  0  0  0  0  0
   -2.8115    6.8521   -0.1084 C   0  0  0  0  0  0  0  0  0  0  0  0
   -1.9792    6.5988   -1.2271 C   0  0  0  0  0  0  0  0  0  0  0  0
   -1.6458    5.3098   -1.5649 C   0  0  0  0  0  0  0  0  0  0  0  0
   -2.1244    4.2126   -0.7987 C   0  0  0  0  0  0  0  0  0  0  0  0
    0.5987    1.4934   -0.4057 H   0  0  0  0  0  0  0  0  0  0  0  0
   -0.6439   -1.2219    0.1548 H   0  0  0  0  0  0  0  0  0  0  0  0
    0.5516    2.8619    2.8786 H   0  0  0  0  0  0  0  0  0  0  0  0
   -0.4201    2.8094    1.3806 H   0  0  0  0  0  0  0  0  0  0  0  0
   -1.2041    2.5065    2.9486 H   0  0  0  0  0  0  0  0  0  0  0  0
    0.4516   -0.8405    3.4894 H   0  0  0  0  0  0  0  0  0  0  0  0
    1.2219    0.6831    4.0432 H   0  0  0  0  0  0  0  0  0  0  0  0
   -0.5301    0.4183    4.2850 H   0  0  0  0  0  0  0  0  0  0  0  0
    0.5014   -0.8086   -2.1718 H   0  0  0  0  0  0  0  0  0  0  0  0
    3.8405   -0.5153    1.0437 H   0  0  0  0  0  0  0  0  0  0  0  0
    2.5353    1.6299   -2.4516 H   0  0  0  0  0  0  0  0  0  0  0  0
    4.5822    3.0115   -2.3935 H   0  0  0  0  0  0  0  0  0  0  0  0
    6.7488    3.5945   -1.3241 H   0  0  0  0  0  0  0  0  0  0  0  0
    8.4258    3.2057    0.4566 H   0  0  0  0  0  0  0  0  0  0  0  0
    8.0441    1.4332    2.1734 H   0  0  0  0  0  0  0  0  0  0  0  0
    5.9897    0.0544    2.1055 H   0  0  0  0  0  0  0  0  0  0  0  0
    2.1198   -2.4271   -2.3302 H   0  0  0  0  0  0  0  0  0  0  0  0
    1.7388   -1.4170    1.8325 H   0  0  0  0  0  0  0  0  0  0  0  0
    1.9790   -3.7856    2.4509 H   0  0  0  0  0  0  0  0  0  0  0  0
    2.2821   -6.1696    1.7853 H   0  0  0  0  0  0  0  0  0  0  0  0
    2.5971   -7.8626    0.0043 H   0  0  0  0  0  0  0  0  0  0  0  0
    2.6810   -7.1650   -2.3897 H   0  0  0  0  0  0  0  0  0  0  0  0
    2.4445   -4.7772   -3.0019 H   0  0  0  0  0  0  0  0  0  0  0  0
   -0.5872    0.8169   -2.1232 H   0  0  0  0  0  0  0  0  0  0  0  0
   -2.5965   -1.5335    1.2314 H   0  0  0  0  0  0  0  0  0  0  0  0
   -3.8179    0.3296   -2.4536 H   0  0  0  0  0  0  0  0  0  0  0  0
   -5.8893   -1.0295   -2.4772 H   0  0  0  0  0  0  0  0  0  0  0  0
   -7.3234   -2.7739   -1.4311 H   0  0  0  0  0  0  0  0  0  0  0  0
   -7.7218   -4.4020    0.3920 H   0  0  0  0  0  0  0  0  0  0  0  0
   -6.0580   -4.6512    2.2366 H   0  0  0  0  0  0  0  0  0  0  0  0
   -4.0022   -3.2710    2.2535 H   0  0  0  0  0  0  0  0  0  0  0  0
   -1.1672    2.7050   -2.0036 H   0  0  0  0  0  0  0  0  0  0  0  0
   -3.4693    1.2372    1.3333 H   0  0  0  0  0  0  0  0  0  0  0  0
   -4.1072    3.5493    1.9218 H   0  0  0  0  0  0  0  0  0  0  0  0
   -3.9386    6.0004    1.5072 H   0  0  0  0  0  0  0  0  0  0  0  0
   -3.0692    7.8804    0.1498 H   0  0  0  0  0  0  0  0  0  0  0  0
   -1.6041    7.4339   -1.8205 H   0  0  0  0  0  0  0  0  0  0  0  0
   -1.0048    5.1095   -2.4262 H   0  0  0  0  0  0  0  0  0  0  0  0
  1  2  1  0  0  0  0
  1  5  1  0  0  0  0
  2  3  1  0  0  0  0
  2  6  1  0  0  0  0
  2  7  1  0  0  0  0
  3  4  1  0  0  0  0
  4  5  1  0  0  0  0
  4  8  1  0  0  0  0
  4 52  1  6  0  0  0
  5 30  1  0  0  0  0
  5 53  1  6  0  0  0
  6 54  1  0  0  0  0
  6 55  1  0  0  0  0
  6 56  1  0  0  0  0
  7 57  1  0  0  0  0
  7 58  1  0  0  0  0
  7 59  1  0  0  0  0
  8  9  1  0  0  0  0
  8 11  1  0  0  0  0
  8 21  1  0  0  0  0
  9 60  1  0  0  0  0
 10 11  2  0  0  0  0
 10 19  1  0  0  0  0
 10 61  1  0  0  0  0
 11 12  1  0  0  0  0
 12 13  2  0  0  0  0
 12 62  1  0  0  0  0
 13 14  1  0  0  0  0
 13 63  1  0  0  0  0
 14 15  2  0  0  0  0
 14 19  1  0  0  0  0
 15 16  1  0  0  0  0
 15 64  1  0  0  0  0
 16 17  2  0  0  0  0
 16 65  1  0  0  0  0
 17 18  1  0  0  0  0
 17 66  1  0  0  0  0
 18 19  2  0  0  0  0
 18 67  1  0  0  0  0
 20 21  2  0  0  0  0
 20 29  1  0  0  0  0
 20 68  1  0  0  0  0
 21 22  1  0  0  0  0
 22 23  2  0  0  0  0
 22 69  1  0  0  0  0
 23 24  1  0  0  0  0
 23 70  1  0  0  0  0
 24 25  2  0  0  0  0
 24 29  1  0  0  0  0
 25 26  1  0  0  0  0
 25 71  1  0  0  0  0
 26 27  2  0  0  0  0
 26 72  1  0  0  0  0
 27 28  1  0  0  0  0
 27 73  1  0  0  0  0
 28 29  2  0  0  0  0
 28 74  1  0  0  0  0
 30 31  1  0  0  0  0
 30 33  1  0  0  0  0
 30 43  1  0  0  0  0
 31 75  1  0  0  0  0
 32 33  2  0  0  0  0
 32 41  1  0  0  0  0
 32 76  1  0  0  0  0
 33 34  1  0  0  0  0
 34 35  2  0  0  0  0
 34 77  1  0  0  0  0
 35 36  1  0  0  0  0
 35 78  1  0  0  0  0
 36 37  2  0  0  0  0
 36 41  1  0  0  0  0
 37 38  1  0  0  0  0
 37 79  1  0  0  0  0
 38 39  2  0  0  0  0
 38 80  1  0  0  0  0
 39 40  1  0  0  0  0
 39 81  1  0  0  0  0
 40 41  2  0  0  0  0
 40 82  1  0  0  0  0
 42 43  2  0  0  0  0
 42 51  1  0  0  0  0
 42 83  1  0  0  0  0
 43 44  1  0  0  0  0
 44 45  2  0  0  0  0
 44 84  1  0  0  0  0
 45 46  1  0  0  0  0
 45 85  1  0  0  0  0
 46 47  2  0  0  0  0
 46 51  1  0  0  0  0
 47 48  1  0  0  0  0
 47 86  1  0  0  0  0
 48 49  2  0  0  0  0
 48 87  1  0  0  0  0
 49 50  1  0  0  0  0
 49 88  1  0  0  0  0
 50 51  2  0  0  0  0
 50 89  1  0  0  0  0
M  END
$$$$
