Title Card Required
 OpenBabel03192317533D

 66 72  0  0  0  0  0  0  0  0999 V2000
    0.9471   -0.3792   -0.9462 O   0  0  0  0  0  0  0  0  0  0  0  0
    0.0558   -1.4653   -0.1387 P   0  0  0  0  0  0  0  0  0  0  0  0
   -0.8773   -0.4937    0.7534 O   0  0  0  0  0  0  0  0  0  0  0  0
   -1.5031    0.5694    0.1258 C   0  0  0  0  0  0  0  0  0  0  0  0
   -0.7499    1.6774   -0.2151 C   0  0  0  0  0  0  0  0  0  0  0  0
    0.6948    1.7130    0.1476 C   0  0  0  0  0  0  0  0  0  0  0  0
    1.5064    0.6652   -0.2387 C   0  0  0  0  0  0  0  0  0  0  0  0
   -2.8958    0.4496   -0.1526 C   0  0  0  0  0  0  0  0  0  0  0  0
   -3.4998    1.5015   -0.8054 C   0  0  0  0  0  0  0  0  0  0  0  0
   -2.7730    2.6431   -1.2304 C   0  0  0  0  0  0  0  0  0  0  0  0
   -3.4100    3.6927   -1.9486 C   0  0  0  0  0  0  0  0  0  0  0  0
   -2.6934    4.7723   -2.4002 C   0  0  0  0  0  0  0  0  0  0  0  0
   -1.2998    4.8447   -2.1598 C   0  0  0  0  0  0  0  0  0  0  0  0
   -0.6589    3.8539   -1.4558 C   0  0  0  0  0  0  0  0  0  0  0  0
   -1.3787    2.7345   -0.9533 C   0  0  0  0  0  0  0  0  0  0  0  0
    2.8905    0.5780    0.0903 C   0  0  0  0  0  0  0  0  0  0  0  0
    3.4369    1.6234    0.8005 C   0  0  0  0  0  0  0  0  0  0  0  0
    2.6542    2.7206    1.2447 C   0  0  0  0  0  0  0  0  0  0  0  0
    3.2315    3.7661    2.0167 C   0  0  0  0  0  0  0  0  0  0  0  0
    2.4598    4.7925    2.5010 C   0  0  0  0  0  0  0  0  0  0  0  0
    1.0679    4.8107    2.2422 C   0  0  0  0  0  0  0  0  0  0  0  0
    0.4835    3.8228    1.4864 C   0  0  0  0  0  0  0  0  0  0  0  0
    1.2613    2.7615    0.9462 C   0  0  0  0  0  0  0  0  0  0  0  0
    3.6861   -0.6243   -0.2634 C   0  0  0  0  0  0  0  0  0  0  0  0
    3.6181   -1.2223   -1.5351 C   0  0  0  0  0  0  0  0  0  0  0  0
    4.3743   -2.3428   -1.8371 C   0  0  0  0  0  0  0  0  0  0  0  0
    5.2229   -2.9102   -0.8741 C   0  0  0  0  0  0  0  0  0  0  0  0
    5.2977   -2.3335    0.3975 C   0  0  0  0  0  0  0  0  0  0  0  0
    4.5316   -1.2024    0.6868 C   0  0  0  0  0  0  0  0  0  0  0  0
    5.9171   -4.0019   -1.2572 O   0  0  0  0  0  0  0  0  0  0  0  0
    6.7678   -4.6143   -0.3246 C   0  0  0  0  0  0  0  0  0  0  0  0
   -3.6594   -0.7652    0.2255 C   0  0  0  0  0  0  0  0  0  0  0  0
   -3.5356   -1.3544    1.4963 C   0  0  0  0  0  0  0  0  0  0  0  0
   -4.2890   -2.4627    1.8431 C   0  0  0  0  0  0  0  0  0  0  0  0
   -5.1864   -3.0277    0.9246 C   0  0  0  0  0  0  0  0  0  0  0  0
   -5.3172   -2.4590   -0.3454 C   0  0  0  0  0  0  0  0  0  0  0  0
   -4.5552   -1.3385   -0.6790 C   0  0  0  0  0  0  0  0  0  0  0  0
   -5.8730   -4.1101    1.3490 O   0  0  0  0  0  0  0  0  0  0  0  0
   -6.7536   -4.7337    0.4532 C   0  0  0  0  0  0  0  0  0  0  0  0
    0.9956   -2.0107    1.0303 O   0  0  0  0  0  0  0  0  0  0  0  0
   -0.5609   -2.4483   -1.0256 O   0  0  0  0  0  0  0  0  0  0  0  0
   -4.5719    1.4564   -1.0092 H   0  0  0  0  0  0  0  0  0  0  0  0
   -4.4817    3.6151   -2.1425 H   0  0  0  0  0  0  0  0  0  0  0  0
   -3.1914    5.5694   -2.9541 H   0  0  0  0  0  0  0  0  0  0  0  0
   -0.7282    5.6921   -2.5412 H   0  0  0  0  0  0  0  0  0  0  0  0
    0.4159    3.9158   -1.2848 H   0  0  0  0  0  0  0  0  0  0  0  0
    4.5015    1.6055    1.0446 H   0  0  0  0  0  0  0  0  0  0  0  0
    4.3026    3.7286    2.2257 H   0  0  0  0  0  0  0  0  0  0  0  0
    2.9126    5.5869    3.0959 H   0  0  0  0  0  0  0  0  0  0  0  0
    0.4519    5.6133    2.6501 H   0  0  0  0  0  0  0  0  0  0  0  0
   -0.5902    3.8433    1.3007 H   0  0  0  0  0  0  0  0  0  0  0  0
    2.9624   -0.7984   -2.2956 H   0  0  0  0  0  0  0  0  0  0  0  0
    4.3304   -2.8078   -2.8221 H   0  0  0  0  0  0  0  0  0  0  0  0
    5.9380   -2.7539    1.1714 H   0  0  0  0  0  0  0  0  0  0  0  0
    4.5785   -0.7748    1.6904 H   0  0  0  0  0  0  0  0  0  0  0  0
    7.5616   -3.9263    0.0109 H   0  0  0  0  0  0  0  0  0  0  0  0
    6.2098   -4.9722    0.5567 H   0  0  0  0  0  0  0  0  0  0  0  0
    7.2265   -5.4708   -0.8306 H   0  0  0  0  0  0  0  0  0  0  0  0
   -2.8421   -0.9294    2.2224 H   0  0  0  0  0  0  0  0  0  0  0  0
   -4.2040   -2.9220    2.8282 H   0  0  0  0  0  0  0  0  0  0  0  0
   -5.9945   -2.8807   -1.0863 H   0  0  0  0  0  0  0  0  0  0  0  0
   -4.6472   -0.9159   -1.6815 H   0  0  0  0  0  0  0  0  0  0  0  0
   -7.5644   -4.0534    0.1429 H   0  0  0  0  0  0  0  0  0  0  0  0
   -6.2264   -5.0944   -0.4456 H   0  0  0  0  0  0  0  0  0  0  0  0
   -7.1884   -5.5893    0.9819 H   0  0  0  0  0  0  0  0  0  0  0  0
    1.4542   -2.8198    0.7628 H   0  0  0  0  0  0  0  0  0  0  0  0
  1  2  1  0  0  0  0
  1  7  1  0  0  0  0
  2  3  1  0  0  0  0
  2 40  1  0  0  0  0
  2 41  2  0  0  0  0
  3  4  1  0  0  0  0
  4  5  2  0  0  0  0
  4  8  1  0  0  0  0
  5  6  1  0  0  0  0
  5 15  1  0  0  0  0
  6  7  2  0  0  0  0
  6 23  1  0  0  0  0
  7 16  1  0  0  0  0
  8  9  2  0  0  0  0
  8 32  1  0  0  0  0
  9 10  1  0  0  0  0
  9 42  1  0  0  0  0
 10 11  2  0  0  0  0
 10 15  1  0  0  0  0
 11 12  1  0  0  0  0
 11 43  1  0  0  0  0
 12 13  2  0  0  0  0
 12 44  1  0  0  0  0
 13 14  1  0  0  0  0
 13 45  1  0  0  0  0
 14 15  2  0  0  0  0
 14 46  1  0  0  0  0
 16 17  2  0  0  0  0
 16 24  1  0  0  0  0
 17 18  1  0  0  0  0
 17 47  1  0  0  0  0
 18 19  2  0  0  0  0
 18 23  1  0  0  0  0
 19 20  1  0  0  0  0
 19 48  1  0  0  0  0
 20 21  2  0  0  0  0
 20 49  1  0  0  0  0
 21 22  1  0  0  0  0
 21 50  1  0  0  0  0
 22 23  2  0  0  0  0
 22 51  1  0  0  0  0
 24 25  2  0  0  0  0
 24 29  1  0  0  0  0
 25 26  1  0  0  0  0
 25 52  1  0  0  0  0
 26 27  2  0  0  0  0
 26 53  1  0  0  0  0
 27 28  1  0  0  0  0
 27 30  1  0  0  0  0
 28 29  2  0  0  0  0
 28 54  1  0  0  0  0
 29 55  1  0  0  0  0
 30 31  1  0  0  0  0
 31 56  1  0  0  0  0
 31 57  1  0  0  0  0
 31 58  1  0  0  0  0
 32 33  2  0  0  0  0
 32 37  1  0  0  0  0
 33 34  1  0  0  0  0
 33 59  1  0  0  0  0
 34 35  2  0  0  0  0
 34 60  1  0  0  0  0
 35 36  1  0  0  0  0
 35 38  1  0  0  0  0
 36 37  2  0  0  0  0
 36 61  1  0  0  0  0
 37 62  1  0  0  0  0
 38 39  1  0  0  0  0
 39 63  1  0  0  0  0
 39 64  1  0  0  0  0
 39 65  1  0  0  0  0
 40 66  1  0  0  0  0
M  END
$$$$
