Title Card Required
 OpenBabel03192317433D

 37 40  0  0  0  0  0  0  0  0999 V2000
    2.9778   -0.3198    0.1546 C   0  0  0  0  0  0  0  0  0  0  0  0
    1.6170   -0.3115   -0.2713 C   0  0  0  0  0  0  0  0  0  0  0  0
    0.7254    0.6990    0.2074 C   0  0  0  0  0  0  0  0  0  0  0  0
    1.1925    1.6853    1.0703 C   0  0  0  0  0  0  0  0  0  0  0  0
    2.5583    1.6649    1.4856 C   0  0  0  0  0  0  0  0  0  0  0  0
    3.4165    0.6963    1.0462 C   0  0  0  0  0  0  0  0  0  0  0  0
    3.8578   -1.3285   -0.3173 C   0  0  0  0  0  0  0  0  0  0  0  0
    3.4197   -2.2997   -1.1845 C   0  0  0  0  0  0  0  0  0  0  0  0
    2.0723   -2.2911   -1.6181 C   0  0  0  0  0  0  0  0  0  0  0  0
    1.1964   -1.3273   -1.1774 C   0  0  0  0  0  0  0  0  0  0  0  0
   -0.7067    0.6896   -0.2060 C   0  0  0  0  0  0  0  0  0  0  0  0
   -1.6118   -0.3065    0.2845 C   0  0  0  0  0  0  0  0  0  0  0  0
   -2.9650   -0.3278   -0.1655 C   0  0  0  0  0  0  0  0  0  0  0  0
   -3.3971    0.6614   -1.0874 C   0  0  0  0  0  0  0  0  0  0  0  0
   -2.5332    1.6276   -1.5310 C   0  0  0  0  0  0  0  0  0  0  0  0
   -1.1844    1.6448   -1.0875 C   0  0  0  0  0  0  0  0  0  0  0  0
   -1.1975   -1.2970    1.2199 C   0  0  0  0  0  0  0  0  0  0  0  0
   -2.0768   -2.2520    1.6697 C   0  0  0  0  0  0  0  0  0  0  0  0
   -3.4180   -2.2755    1.2141 C   0  0  0  0  0  0  0  0  0  0  0  0
   -3.8494   -1.3305    0.3173 C   0  0  0  0  0  0  0  0  0  0  0  0
    0.3594    2.6596    1.5838 N   0  0  0  0  0  0  0  0  0  0  0  0
   -0.3363    2.6178   -1.5063 O   0  0  0  0  0  0  0  0  0  0  0  0
    2.9060    2.4384    2.1738 H   0  0  0  0  0  0  0  0  0  0  0  0
    4.4573    0.6944    1.3775 H   0  0  0  0  0  0  0  0  0  0  0  0
    4.8954   -1.3154    0.0246 H   0  0  0  0  0  0  0  0  0  0  0  0
    4.1032   -3.0712   -1.5414 H   0  0  0  0  0  0  0  0  0  0  0  0
    1.7239   -3.0575   -2.3125 H   0  0  0  0  0  0  0  0  0  0  0  0
    0.1624   -1.3327   -1.5247 H   0  0  0  0  0  0  0  0  0  0  0  0
   -4.4315    0.6462   -1.4367 H   0  0  0  0  0  0  0  0  0  0  0  0
   -2.8711    2.3929   -2.2349 H   0  0  0  0  0  0  0  0  0  0  0  0
   -0.1671   -1.2842    1.5768 H   0  0  0  0  0  0  0  0  0  0  0  0
   -1.7379   -3.0005    2.3878 H   0  0  0  0  0  0  0  0  0  0  0  0
   -4.1035   -3.0413    1.5795 H   0  0  0  0  0  0  0  0  0  0  0  0
   -4.8815   -1.3321   -0.0402 H   0  0  0  0  0  0  0  0  0  0  0  0
   -0.4908    2.8343    1.0630 H   0  0  0  0  0  0  0  0  0  0  0  0
    0.8158    3.5023    1.9071 H   0  0  0  0  0  0  0  0  0  0  0  0
   -0.7693    3.1567   -2.1769 H   0  0  0  0  0  0  0  0  0  0  0  0
  1  2  1  0  0  0  0
  1  6  2  0  0  0  0
  1  7  1  0  0  0  0
  2  3  2  0  0  0  0
  2 10  1  0  0  0  0
  3  4  1  0  0  0  0
  3 11  1  0  0  0  0
  4  5  2  0  0  0  0
  4 21  1  0  0  0  0
  5  6  1  0  0  0  0
  5 23  1  0  0  0  0
  6 24  1  0  0  0  0
  7  8  2  0  0  0  0
  7 25  1  0  0  0  0
  8  9  1  0  0  0  0
  8 26  1  0  0  0  0
  9 10  2  0  0  0  0
  9 27  1  0  0  0  0
 10 28  1  0  0  0  0
 11 12  2  0  0  0  0
 11 16  1  0  0  0  0
 12 13  1  0  0  0  0
 12 17  1  0  0  0  0
 13 14  2  0  0  0  0
 13 20  1  0  0  0  0
 14 15  1  0  0  0  0
 14 29  1  0  0  0  0
 15 16  2  0  0  0  0
 15 30  1  0  0  0  0
 16 22  1  0  0  0  0
 17 18  2  0  0  0  0
 17 31  1  0  0  0  0
 18 19  1  0  0  0  0
 18 32  1  0  0  0  0
 19 20  2  0  0  0  0
 19 33  1  0  0  0  0
 20 34  1  0  0  0  0
 21 35  1  0  0  0  0
 21 36  1  0  0  0  0
 22 37  1  0  0  0  0
M  END
$$$$
