Title Card Required
 OpenBabel03192317493D

 49 51  0  0  1  0  0  0  0  0999 V2000
    0.0407    1.1842   -0.1192 C   0  0  0  0  0  0  0  0  0  0  0  0
   -0.1369    2.4066   -1.0441 C   0  0  0  0  0  0  0  0  0  0  0  0
   -1.3136    3.1483   -0.3967 C   0  0  0  0  0  0  0  0  0  0  0  0
   -1.2030    2.8545    1.1233 C   0  0  0  0  0  0  0  0  0  0  0  0
   -0.0728    1.8171    1.2723 C   0  0  0  0  0  0  0  0  0  0  0  0
   -1.0843    0.1947   -0.3361 C   0  0  0  0  0  0  0  0  0  0  0  0
    1.3531    0.4915   -0.3499 C   0  0  0  0  0  0  0  0  0  0  0  0
   -1.5576    0.0934   -1.5973 O   0  0  0  0  0  0  0  0  0  0  0  0
   -2.6011   -0.8800   -1.5664 C   0  0  0  0  0  0  0  0  0  0  0  0
   -2.6604   -1.3203   -0.0797 C   0  0  1  0  0  0  0  0  0  0  0  0
   -1.6124   -0.5261    0.5607 N   0  0  0  0  0  0  0  0  0  0  0  0
    2.3981    0.6036    0.3549 N   0  0  0  0  0  0  0  0  0  0  0  0
    3.4447   -0.1829   -0.3002 C   0  0  2  0  0  0  0  0  0  0  0  0
    2.6960   -0.9038   -1.4477 C   0  0  0  0  0  0  0  0  0  0  0  0
    1.4090   -0.2846   -1.4587 O   0  0  0  0  0  0  0  0  0  0  0  0
   -4.0274   -1.0992    0.5787 C   0  0  0  0  0  0  0  0  0  0  0  0
   -5.0895   -1.9711   -0.0874 C   0  0  0  0  0  0  0  0  0  0  0  0
   -3.9596   -1.3643    2.0792 C   0  0  0  0  0  0  0  0  0  0  0  0
    4.1605   -1.1301    0.6651 C   0  0  0  0  0  0  0  0  0  0  0  0
    5.2354   -1.9277   -0.0708 C   0  0  0  0  0  0  0  0  0  0  0  0
    4.7492   -0.3618    1.8435 C   0  0  0  0  0  0  0  0  0  0  0  0
    0.7862    3.0035   -0.9862 H   0  0  0  0  0  0  0  0  0  0  0  0
   -0.3095    2.1228   -2.0893 H   0  0  0  0  0  0  0  0  0  0  0  0
   -1.3026    4.2218   -0.6283 H   0  0  0  0  0  0  0  0  0  0  0  0
   -2.2555    2.7429   -0.7962 H   0  0  0  0  0  0  0  0  0  0  0  0
   -0.9852    3.7615    1.7033 H   0  0  0  0  0  0  0  0  0  0  0  0
   -2.1501    2.4493    1.5066 H   0  0  0  0  0  0  0  0  0  0  0  0
   -0.2664    1.0593    2.0407 H   0  0  0  0  0  0  0  0  0  0  0  0
    0.8898    2.2962    1.4947 H   0  0  0  0  0  0  0  0  0  0  0  0
   -2.3460   -1.6928   -2.2593 H   0  0  0  0  0  0  0  0  0  0  0  0
   -3.5328   -0.4008   -1.9048 H   0  0  0  0  0  0  0  0  0  0  0  0
   -2.4046   -2.3893    0.0291 H   0  0  0  0  0  0  0  0  0  0  0  0
    4.1990    0.5202   -0.7005 H   0  0  0  0  0  0  0  0  0  0  0  0
    3.1576   -0.7828   -2.4357 H   0  0  0  0  0  0  0  0  0  0  0  0
    2.5637   -1.9787   -1.2411 H   0  0  0  0  0  0  0  0  0  0  0  0
   -4.2855   -0.0357    0.4195 H   0  0  0  0  0  0  0  0  0  0  0  0
   -4.8491   -3.0377    0.0496 H   0  0  0  0  0  0  0  0  0  0  0  0
   -6.0788   -1.7924    0.3574 H   0  0  0  0  0  0  0  0  0  0  0  0
   -5.1705   -1.7799   -1.1680 H   0  0  0  0  0  0  0  0  0  0  0  0
   -3.2040   -0.7270    2.5549 H   0  0  0  0  0  0  0  0  0  0  0  0
   -4.9348   -1.1815    2.5536 H   0  0  0  0  0  0  0  0  0  0  0  0
   -3.6840   -2.4144    2.2686 H   0  0  0  0  0  0  0  0  0  0  0  0
    3.3950   -1.8287    1.0485 H   0  0  0  0  0  0  0  0  0  0  0  0
    6.0000   -1.2499   -0.4838 H   0  0  0  0  0  0  0  0  0  0  0  0
    5.7406   -2.6259    0.6116 H   0  0  0  0  0  0  0  0  0  0  0  0
    4.8209   -2.5169   -0.9027 H   0  0  0  0  0  0  0  0  0  0  0  0
    3.9690    0.2122    2.3586 H   0  0  0  0  0  0  0  0  0  0  0  0
    5.2224   -1.0479    2.5609 H   0  0  0  0  0  0  0  0  0  0  0  0
    5.5185    0.3457    1.4938 H   0  0  0  0  0  0  0  0  0  0  0  0
  1  2  1  0  0  0  0
  1  5  1  0  0  0  0
  1  6  1  0  0  0  0
  1  7  1  0  0  0  0
  2  3  1  0  0  0  0
  2 22  1  0  0  0  0
  2 23  1  0  0  0  0
  3  4  1  0  0  0  0
  3 24  1  0  0  0  0
  3 25  1  0  0  0  0
  4  5  1  0  0  0  0
  4 26  1  0  0  0  0
  4 27  1  0  0  0  0
  5 28  1  0  0  0  0
  5 29  1  0  0  0  0
  6  8  1  0  0  0  0
  6 11  2  0  0  0  0
  7 12  2  0  0  0  0
  7 15  1  0  0  0  0
  8  9  1  0  0  0  0
  9 10  1  0  0  0  0
  9 30  1  0  0  0  0
  9 31  1  0  0  0  0
 10 11  1  0  0  0  0
 10 16  1  0  0  0  0
 10 32  1  1  0  0  0
 12 13  1  0  0  0  0
 13 14  1  0  0  0  0
 13 19  1  0  0  0  0
 13 33  1  6  0  0  0
 14 15  1  0  0  0  0
 14 34  1  0  0  0  0
 14 35  1  0  0  0  0
 16 17  1  0  0  0  0
 16 18  1  0  0  0  0
 16 36  1  0  0  0  0
 17 37  1  0  0  0  0
 17 38  1  0  0  0  0
 17 39  1  0  0  0  0
 18 40  1  0  0  0  0
 18 41  1  0  0  0  0
 18 42  1  0  0  0  0
 19 20  1  0  0  0  0
 19 21  1  0  0  0  0
 19 43  1  0  0  0  0
 20 44  1  0  0  0  0
 20 45  1  0  0  0  0
 20 46  1  0  0  0  0
 21 47  1  0  0  0  0
 21 48  1  0  0  0  0
 21 49  1  0  0  0  0
M  END
$$$$
