Title Card Required
 OpenBabel03192317573D

 49 51  0  0  1  0  0  0  0  0999 V2000
   -2.2162   -1.1537    1.1138 C   0  0  1  0  0  0  0  0  0  0  0  0
   -2.6333   -2.3726    0.2691 C   0  0  0  0  0  0  0  0  0  0  0  0
   -1.9116   -2.2947   -1.0833 C   0  0  0  0  0  0  0  0  0  0  0  0
   -2.0834   -0.8683   -1.6286 C   0  0  1  0  0  0  0  0  0  0  0  0
   -0.8007    1.3631    0.0953 C   0  0  0  0  0  0  0  0  0  0  0  0
    0.5693    1.0575    0.2538 C   0  0  0  0  0  0  0  0  0  0  0  0
    2.3853   -0.6822   -1.3452 C   0  0  1  0  0  0  0  0  0  0  0  0
    3.6968   -1.2192   -0.7448 C   0  0  0  0  0  0  0  0  0  0  0  0
    3.8945   -0.5488    0.6150 C   0  0  0  0  0  0  0  0  0  0  0  0
    2.5874   -0.7166    1.4081 C   0  0  1  0  0  0  0  0  0  0  0  0
   -3.5048    1.0076   -0.1179 O   0  0  0  0  0  0  0  0  0  0  0  0
   -2.2302    0.2114   -0.1318 P   0  0  2  0  0  0  0  0  0  0  0  0
    1.1874   -0.6874    0.1338 P   0  0  1  0  0  0  0  0  0  0  0  0
   -1.2289    2.6968    0.1834 C   0  0  0  0  0  0  0  0  0  0  0  0
   -0.3278    3.7263    0.4380 C   0  0  0  0  0  0  0  0  0  0  0  0
    1.0194    3.4295    0.6269 C   0  0  0  0  0  0  0  0  0  0  0  0
    1.4529    2.1099    0.5372 C   0  0  0  0  0  0  0  0  0  0  0  0
   -1.0988   -0.4429   -2.7064 C   0  0  0  0  0  0  0  0  0  0  0  0
    2.5513   -2.0333    2.1866 C   0  0  0  0  0  0  0  0  0  0  0  0
   -3.1480   -0.8375    2.2766 C   0  0  0  0  0  0  0  0  0  0  0  0
    2.5758    0.6396   -2.0832 C   0  0  0  0  0  0  0  0  0  0  0  0
   -1.1840   -1.2998    1.4627 H   0  0  0  0  0  0  0  0  0  0  0  0
   -2.4154   -3.3124    0.7980 H   0  0  0  0  0  0  0  0  0  0  0  0
   -3.7249   -2.3346    0.1096 H   0  0  0  0  0  0  0  0  0  0  0  0
   -0.8401   -2.5018   -0.9396 H   0  0  0  0  0  0  0  0  0  0  0  0
   -2.3031   -3.0355   -1.7967 H   0  0  0  0  0  0  0  0  0  0  0  0
   -3.1109   -0.7615   -2.0166 H   0  0  0  0  0  0  0  0  0  0  0  0
    1.9795   -1.4181   -2.0560 H   0  0  0  0  0  0  0  0  0  0  0  0
    3.6275   -2.3105   -0.6087 H   0  0  0  0  0  0  0  0  0  0  0  0
    4.5417   -1.0357   -1.4269 H   0  0  0  0  0  0  0  0  0  0  0  0
    4.7483   -0.9781    1.1628 H   0  0  0  0  0  0  0  0  0  0  0  0
    4.1193    0.5192    0.4647 H   0  0  0  0  0  0  0  0  0  0  0  0
    2.4353    0.1154    2.1111 H   0  0  0  0  0  0  0  0  0  0  0  0
   -2.2957    2.8966    0.0657 H   0  0  0  0  0  0  0  0  0  0  0  0
   -0.6824    4.7560    0.5042 H   0  0  0  0  0  0  0  0  0  0  0  0
    1.7364    4.2228    0.8446 H   0  0  0  0  0  0  0  0  0  0  0  0
    2.5116    1.8956    0.6940 H   0  0  0  0  0  0  0  0  0  0  0  0
   -1.1950   -1.0875   -3.5929 H   0  0  0  0  0  0  0  0  0  0  0  0
   -1.2709    0.5968   -3.0214 H   0  0  0  0  0  0  0  0  0  0  0  0
   -0.0624   -0.5229   -2.3510 H   0  0  0  0  0  0  0  0  0  0  0  0
    3.3563   -2.0625    2.9367 H   0  0  0  0  0  0  0  0  0  0  0  0
    1.5917   -2.1643    2.7067 H   0  0  0  0  0  0  0  0  0  0  0  0
    2.6815   -2.8976    1.5171 H   0  0  0  0  0  0  0  0  0  0  0  0
   -3.2450   -1.7081    2.9423 H   0  0  0  0  0  0  0  0  0  0  0  0
   -2.7730    0.0080    2.8713 H   0  0  0  0  0  0  0  0  0  0  0  0
   -4.1425   -0.5603    1.8998 H   0  0  0  0  0  0  0  0  0  0  0  0
    3.1852    0.4737   -2.9849 H   0  0  0  0  0  0  0  0  0  0  0  0
    1.6176    1.0809   -2.3938 H   0  0  0  0  0  0  0  0  0  0  0  0
    3.0908    1.3867   -1.4637 H   0  0  0  0  0  0  0  0  0  0  0  0
  1  2  1  0  0  0  0
  1 12  1  0  0  0  0
  1 20  1  0  0  0  0
  1 22  1  1  0  0  0
  2  3  1  0  0  0  0
  2 23  1  0  0  0  0
  2 24  1  0  0  0  0
  3  4  1  0  0  0  0
  3 25  1  0  0  0  0
  3 26  1  0  0  0  0
  4 12  1  0  0  0  0
  4 18  1  0  0  0  0
  4 27  1  6  0  0  0
  5  6  2  0  0  0  0
  5 12  1  0  0  0  0
  5 14  1  0  0  0  0
  6 17  1  0  0  0  0
  7  8  1  0  0  0  0
  7 13  1  0  0  0  0
  7 21  1  0  0  0  0
  7 28  1  6  0  0  0
  8  9  1  0  0  0  0
  8 29  1  0  0  0  0
  8 30  1  0  0  0  0
  9 10  1  0  0  0  0
  9 31  1  0  0  0  0
  9 32  1  0  0  0  0
 10 13  1  0  0  0  0
 10 19  1  0  0  0  0
 10 33  1  1  0  0  0
 12 11  2  1  0  0  0
 13  6  1  1  0  0  0
 14 15  2  0  0  0  0
 14 34  1  0  0  0  0
 15 16  1  0  0  0  0
 15 35  1  0  0  0  0
 16 17  2  0  0  0  0
 16 36  1  0  0  0  0
 17 37  1  0  0  0  0
 18 38  1  0  0  0  0
 18 39  1  0  0  0  0
 18 40  1  0  0  0  0
 19 41  1  0  0  0  0
 19 42  1  0  0  0  0
 19 43  1  0  0  0  0
 20 44  1  0  0  0  0
 20 45  1  0  0  0  0
 20 46  1  0  0  0  0
 21 47  1  0  0  0  0
 21 48  1  0  0  0  0
 21 49  1  0  0  0  0
M  END
$$$$
