Title Card Required
 OpenBabel03192317533D

 42 43  0  0  1  0  0  0  0  0999 V2000
   -1.2650    1.5822   -0.4330 O   0  0  0  0  0  0  0  0  0  0  0  0
   -0.7295    0.3785   -0.1350 C   0  0  0  0  0  0  0  0  0  0  0  0
   -1.4742   -0.6419   -0.1203 N   0  0  0  0  0  0  0  0  0  0  0  0
   -2.8137   -0.1781   -0.4904 C   0  0  2  0  0  0  0  0  0  0  0  0
   -2.6743    1.3632   -0.5336 C   0  0  0  0  0  0  0  0  0  0  0  0
    2.6744    1.3634    0.5334 C   0  0  0  0  0  0  0  0  0  0  0  0
    2.8138   -0.1779    0.4906 C   0  0  1  0  0  0  0  0  0  0  0  0
    1.4742   -0.6419    0.1209 N   0  0  0  0  0  0  0  0  0  0  0  0
    0.7296    0.3786    0.1351 C   0  0  0  0  0  0  0  0  0  0  0  0
    1.2650    1.5824    0.4325 O   0  0  0  0  0  0  0  0  0  0  0  0
   -3.8685   -0.6823    0.4864 C   0  0  0  0  0  0  0  0  0  0  0  0
    3.8684   -0.6824   -0.4862 C   0  0  0  0  0  0  0  0  0  0  0  0
   -5.3009   -0.2387    0.1716 C   0  0  0  0  0  0  0  0  0  0  0  0
    5.3008   -0.2387   -0.1717 C   0  0  0  0  0  0  0  0  0  0  0  0
   -5.7496   -0.6813   -1.2210 C   0  0  0  0  0  0  0  0  0  0  0  0
   -6.2554   -0.7700    1.2396 C   0  0  0  0  0  0  0  0  0  0  0  0
    5.7497   -0.6810    1.2209 C   0  0  0  0  0  0  0  0  0  0  0  0
    6.2552   -0.7705   -1.2397 C   0  0  0  0  0  0  0  0  0  0  0  0
   -3.0291   -0.5838   -1.4933 H   0  0  0  0  0  0  0  0  0  0  0  0
   -3.0410    1.8246   -1.4594 H   0  0  0  0  0  0  0  0  0  0  0  0
   -3.1643    1.8472    0.3276 H   0  0  0  0  0  0  0  0  0  0  0  0
    3.0409    1.8250    1.4592 H   0  0  0  0  0  0  0  0  0  0  0  0
    3.1646    1.8473   -0.3277 H   0  0  0  0  0  0  0  0  0  0  0  0
    3.0294   -0.5833    1.4936 H   0  0  0  0  0  0  0  0  0  0  0  0
   -3.8194   -1.7836    0.5048 H   0  0  0  0  0  0  0  0  0  0  0  0
   -3.5880   -0.3392    1.4969 H   0  0  0  0  0  0  0  0  0  0  0  0
    3.8192   -1.7837   -0.5044 H   0  0  0  0  0  0  0  0  0  0  0  0
    3.5877   -0.3395   -1.4967 H   0  0  0  0  0  0  0  0  0  0  0  0
   -5.3377    0.8657    0.2083 H   0  0  0  0  0  0  0  0  0  0  0  0
    5.3377    0.8656   -0.2087 H   0  0  0  0  0  0  0  0  0  0  0  0
   -5.6482   -1.7734   -1.3290 H   0  0  0  0  0  0  0  0  0  0  0  0
   -6.8050   -0.4236   -1.3917 H   0  0  0  0  0  0  0  0  0  0  0  0
   -5.1613   -0.2079   -2.0206 H   0  0  0  0  0  0  0  0  0  0  0  0
   -5.9523   -0.4444    2.2453 H   0  0  0  0  0  0  0  0  0  0  0  0
   -7.2842   -0.4239    1.0634 H   0  0  0  0  0  0  0  0  0  0  0  0
   -6.2635   -1.8715    1.2312 H   0  0  0  0  0  0  0  0  0  0  0  0
    5.6482   -1.7730    1.3293 H   0  0  0  0  0  0  0  0  0  0  0  0
    6.8051   -0.4233    1.3914 H   0  0  0  0  0  0  0  0  0  0  0  0
    5.1616   -0.2073    2.0205 H   0  0  0  0  0  0  0  0  0  0  0  0
    5.9519   -0.4451   -2.2455 H   0  0  0  0  0  0  0  0  0  0  0  0
    7.2840   -0.4243   -1.0637 H   0  0  0  0  0  0  0  0  0  0  0  0
    6.2633   -1.8719   -1.2310 H   0  0  0  0  0  0  0  0  0  0  0  0
  1  2  1  0  0  0  0
  1  5  1  0  0  0  0
  2  3  2  0  0  0  0
  2  9  1  0  0  0  0
  3  4  1  0  0  0  0
  4  5  1  0  0  0  0
  4 11  1  0  0  0  0
  4 19  1  6  0  0  0
  5 20  1  0  0  0  0
  5 21  1  0  0  0  0
  6  7  1  0  0  0  0
  6 10  1  0  0  0  0
  6 22  1  0  0  0  0
  6 23  1  0  0  0  0
  7  8  1  0  0  0  0
  7 12  1  0  0  0  0
  7 24  1  1  0  0  0
  8  9  2  0  0  0  0
  9 10  1  0  0  0  0
 11 13  1  0  0  0  0
 11 25  1  0  0  0  0
 11 26  1  0  0  0  0
 12 14  1  0  0  0  0
 12 27  1  0  0  0  0
 12 28  1  0  0  0  0
 13 15  1  0  0  0  0
 13 16  1  0  0  0  0
 13 29  1  0  0  0  0
 14 17  1  0  0  0  0
 14 18  1  0  0  0  0
 14 30  1  0  0  0  0
 15 31  1  0  0  0  0
 15 32  1  0  0  0  0
 15 33  1  0  0  0  0
 16 34  1  0  0  0  0
 16 35  1  0  0  0  0
 16 36  1  0  0  0  0
 17 37  1  0  0  0  0
 17 38  1  0  0  0  0
 17 39  1  0  0  0  0
 18 40  1  0  0  0  0
 18 41  1  0  0  0  0
 18 42  1  0  0  0  0
M  END
$$$$
