Title Card Required
 OpenBabel03192317523D

 99106  0  0  1  0  0  0  0  0999 V2000
   -1.5358    3.2272    1.0352 C   0  0  0  0  0  0  0  0  0  0  0  0
   -0.9934    1.8961    0.5390 C   0  0  1  0  0  0  0  0  0  0  0  0
    0.0570    1.2750    1.4643 C   0  0  0  0  0  0  0  0  0  0  0  0
    1.4954    1.4588    0.9920 C   0  0  2  0  0  0  0  0  0  0  0  0
    1.9377    2.9016    0.8154 C   0  0  0  0  0  0  0  0  0  0  0  0
   -2.0722    0.9671    0.4289 O   0  0  0  0  0  0  0  0  0  0  0  0
    1.6237    0.7877   -0.2667 O   0  0  0  0  0  0  0  0  0  0  0  0
   -4.5025    0.7939   -0.4575 N   0  0  0  0  0  0  0  0  0  0  0  0
   -2.8571    0.8089   -1.0258 P   0  0  2  0  0  0  0  0  0  0  0  0
   -2.9057   -0.9123   -1.1994 N   0  0  0  0  0  0  0  0  0  0  0  0
   -4.1682   -1.5064   -0.7806 C   0  0  2  0  0  0  0  0  0  0  0  0
   -4.7690   -0.4874    0.1860 C   0  0  2  0  0  0  0  0  0  0  0  0
   -6.2263   -0.8336    0.4559 C   0  0  0  0  0  0  0  0  0  0  0  0
   -6.2812   -2.2302    1.0882 C   0  0  0  0  0  0  0  0  0  0  0  0
   -5.5493   -3.2863    0.2519 C   0  0  0  0  0  0  0  0  0  0  0  0
   -4.1149   -2.8677   -0.0953 C   0  0  0  0  0  0  0  0  0  0  0  0
   -2.0559   -1.5280   -2.1283 C   0  0  0  0  0  0  0  0  0  0  0  0
   -2.4858   -2.5787   -2.9552 C   0  0  0  0  0  0  0  0  0  0  0  0
   -1.6147   -3.1461   -3.8842 C   0  0  0  0  0  0  0  0  0  0  0  0
   -0.3114   -2.6737   -4.0224 C   0  0  0  0  0  0  0  0  0  0  0  0
    0.1199   -1.6281   -3.2044 C   0  0  0  0  0  0  0  0  0  0  0  0
   -0.7312   -1.0705   -2.2559 C   0  0  0  0  0  0  0  0  0  0  0  0
   -4.9305    2.0021    0.1405 C   0  0  0  0  0  0  0  0  0  0  0  0
   -5.0817    3.1353   -0.6723 C   0  0  0  0  0  0  0  0  0  0  0  0
   -5.4348    4.3614   -0.1177 C   0  0  0  0  0  0  0  0  0  0  0  0
   -5.6655    4.4754    1.2541 C   0  0  0  0  0  0  0  0  0  0  0  0
   -5.5299    3.3497    2.0638 C   0  0  0  0  0  0  0  0  0  0  0  0
   -5.1558    2.1224    1.5180 C   0  0  0  0  0  0  0  0  0  0  0  0
    2.8855   -1.3452    0.7654 N   0  0  0  0  0  0  0  0  0  0  0  0
    2.7773   -0.3193   -0.6532 P   0  0  2  0  0  0  0  0  0  0  0  0
    4.2736    0.4481   -0.1753 N   0  0  0  0  0  0  0  0  0  0  0  0
    5.0465   -0.4226    0.7137 C   0  0  2  0  0  0  0  0  0  0  0  0
    4.0077   -1.0413    1.6370 C   0  0  2  0  0  0  0  0  0  0  0  0
    4.6338   -2.2133    2.3856 C   0  0  0  0  0  0  0  0  0  0  0  0
    5.8022   -1.6771    3.2211 C   0  0  0  0  0  0  0  0  0  0  0  0
    6.8171   -0.8980    2.3768 C   0  0  0  0  0  0  0  0  0  0  0  0
    6.1667    0.2053    1.5303 C   0  0  0  0  0  0  0  0  0  0  0  0
    4.9961    1.1894   -1.1559 C   0  0  0  0  0  0  0  0  0  0  0  0
    5.5800    2.4105   -0.7951 C   0  0  0  0  0  0  0  0  0  0  0  0
    6.3111    3.1478   -1.7233 C   0  0  0  0  0  0  0  0  0  0  0  0
    6.4530    2.6861   -3.0319 C   0  0  0  0  0  0  0  0  0  0  0  0
    5.8680    1.4764   -3.4010 C   0  0  0  0  0  0  0  0  0  0  0  0
    5.1521    0.7267   -2.4690 C   0  0  0  0  0  0  0  0  0  0  0  0
    1.6880   -1.8710    1.2831 C   0  0  0  0  0  0  0  0  0  0  0  0
    0.7359   -2.4057    0.4002 C   0  0  0  0  0  0  0  0  0  0  0  0
   -0.5044   -2.8277    0.8623 C   0  0  0  0  0  0  0  0  0  0  0  0
   -0.8115   -2.7673    2.2232 C   0  0  0  0  0  0  0  0  0  0  0  0
    0.1424   -2.2740    3.1103 C   0  0  0  0  0  0  0  0  0  0  0  0
    1.3788   -1.8192    2.6514 C   0  0  0  0  0  0  0  0  0  0  0  0
   -4.8540   -1.5770   -1.6505 H   0  0  0  0  0  0  0  0  0  0  0  0
    5.4995   -1.2468    0.1209 H   0  0  0  0  0  0  0  0  0  0  0  0
   -4.2012   -0.5655    1.1372 H   0  0  0  0  0  0  0  0  0  0  0  0
    3.7289   -0.2678    2.3848 H   0  0  0  0  0  0  0  0  0  0  0  0
   -2.0479    3.0763    1.9975 H   0  0  0  0  0  0  0  0  0  0  0  0
   -2.2683    3.6404    0.3245 H   0  0  0  0  0  0  0  0  0  0  0  0
   -0.7271    3.9590    1.1750 H   0  0  0  0  0  0  0  0  0  0  0  0
   -0.5412    2.0274   -0.4628 H   0  0  0  0  0  0  0  0  0  0  0  0
   -0.0448    1.6738    2.4875 H   0  0  0  0  0  0  0  0  0  0  0  0
   -0.1477    0.1958    1.5137 H   0  0  0  0  0  0  0  0  0  0  0  0
    2.1577    0.9688    1.7251 H   0  0  0  0  0  0  0  0  0  0  0  0
    1.3410    3.3955    0.0349 H   0  0  0  0  0  0  0  0  0  0  0  0
    1.8259    3.4618    1.7554 H   0  0  0  0  0  0  0  0  0  0  0  0
    2.9910    2.9278    0.5044 H   0  0  0  0  0  0  0  0  0  0  0  0
   -6.6919   -0.0921    1.1211 H   0  0  0  0  0  0  0  0  0  0  0  0
   -6.7821   -0.8089   -0.4956 H   0  0  0  0  0  0  0  0  0  0  0  0
   -5.8145   -2.1803    2.0868 H   0  0  0  0  0  0  0  0  0  0  0  0
   -7.3265   -2.5332    1.2468 H   0  0  0  0  0  0  0  0  0  0  0  0
   -5.5436   -4.2487    0.7844 H   0  0  0  0  0  0  0  0  0  0  0  0
   -6.1055   -3.4516   -0.6867 H   0  0  0  0  0  0  0  0  0  0  0  0
   -3.5031   -2.7781    0.8171 H   0  0  0  0  0  0  0  0  0  0  0  0
   -3.6373   -3.6234   -0.7358 H   0  0  0  0  0  0  0  0  0  0  0  0
   -3.5103   -2.9449   -2.8861 H   0  0  0  0  0  0  0  0  0  0  0  0
   -1.9695   -3.9620   -4.5166 H   0  0  0  0  0  0  0  0  0  0  0  0
    0.3635   -3.1172   -4.7552 H   0  0  0  0  0  0  0  0  0  0  0  0
    1.1429   -1.2529   -3.2772 H   0  0  0  0  0  0  0  0  0  0  0  0
   -0.3527   -0.2963   -1.5808 H   0  0  0  0  0  0  0  0  0  0  0  0
   -4.9167    3.0324   -1.7462 H   0  0  0  0  0  0  0  0  0  0  0  0
   -5.5427    5.2330   -0.7656 H   0  0  0  0  0  0  0  0  0  0  0  0
   -5.9524    5.4344    1.6872 H   0  0  0  0  0  0  0  0  0  0  0  0
   -5.7045    3.4264    3.1385 H   0  0  0  0  0  0  0  0  0  0  0  0
   -5.0211    1.2575    2.1682 H   0  0  0  0  0  0  0  0  0  0  0  0
    3.8975   -2.7171    3.0273 H   0  0  0  0  0  0  0  0  0  0  0  0
    4.9834   -2.9580    1.6520 H   0  0  0  0  0  0  0  0  0  0  0  0
    5.3999   -1.0119    4.0046 H   0  0  0  0  0  0  0  0  0  0  0  0
    6.3058   -2.5036    3.7435 H   0  0  0  0  0  0  0  0  0  0  0  0
    7.5941   -0.4665    3.0243 H   0  0  0  0  0  0  0  0  0  0  0  0
    7.3299   -1.6002    1.6981 H   0  0  0  0  0  0  0  0  0  0  0  0
    5.7507    1.0009    2.1718 H   0  0  0  0  0  0  0  0  0  0  0  0
    6.9151    0.6681    0.8707 H   0  0  0  0  0  0  0  0  0  0  0  0
    5.4497    2.7713    0.2264 H   0  0  0  0  0  0  0  0  0  0  0  0
    6.7624    4.0956   -1.4252 H   0  0  0  0  0  0  0  0  0  0  0  0
    7.0162    3.2691   -3.7618 H   0  0  0  0  0  0  0  0  0  0  0  0
    5.9739    1.1059   -4.4219 H   0  0  0  0  0  0  0  0  0  0  0  0
    4.7032   -0.2252   -2.7581 H   0  0  0  0  0  0  0  0  0  0  0  0
    0.9688   -2.4750   -0.6631 H   0  0  0  0  0  0  0  0  0  0  0  0
   -1.2298   -3.2133    0.1427 H   0  0  0  0  0  0  0  0  0  0  0  0
   -1.7800   -3.1104    2.5898 H   0  0  0  0  0  0  0  0  0  0  0  0
   -0.0788   -2.2243    4.1780 H   0  0  0  0  0  0  0  0  0  0  0  0
    2.0927   -1.4030    3.3626 H   0  0  0  0  0  0  0  0  0  0  0  0
  1  2  1  0  0  0  0
  1 54  1  0  0  0  0
  1 55  1  0  0  0  0
  1 56  1  0  0  0  0
  2  3  1  0  0  0  0
  2  6  1  0  0  0  0
  2 57  1  6  0  0  0
  3  4  1  0  0  0  0
  3 58  1  0  0  0  0
  3 59  1  0  0  0  0
  4  5  1  0  0  0  0
  4  7  1  0  0  0  0
  4 60  1  1  0  0  0
  5 61  1  0  0  0  0
  5 62  1  0  0  0  0
  5 63  1  0  0  0  0
  8  9  1  0  0  0  0
  8 12  1  0  0  0  0
  8 23  1  0  0  0  0
  9  6  1  1  0  0  0
  9 10  1  0  0  0  0
 10 11  1  0  0  0  0
 10 17  1  0  0  0  0
 11 12  1  0  0  0  0
 11 16  1  0  0  0  0
 11 50  1  6  0  0  0
 12 13  1  0  0  0  0
 12 52  1  1  0  0  0
 13 14  1  0  0  0  0
 13 64  1  0  0  0  0
 13 65  1  0  0  0  0
 14 15  1  0  0  0  0
 14 66  1  0  0  0  0
 14 67  1  0  0  0  0
 15 16  1  0  0  0  0
 15 68  1  0  0  0  0
 15 69  1  0  0  0  0
 16 70  1  0  0  0  0
 16 71  1  0  0  0  0
 17 18  2  0  0  0  0
 17 22  1  0  0  0  0
 18 19  1  0  0  0  0
 18 72  1  0  0  0  0
 19 20  2  0  0  0  0
 19 73  1  0  0  0  0
 20 21  1  0  0  0  0
 20 74  1  0  0  0  0
 21 22  2  0  0  0  0
 21 75  1  0  0  0  0
 22 76  1  0  0  0  0
 23 24  2  0  0  0  0
 23 28  1  0  0  0  0
 24 25  1  0  0  0  0
 24 77  1  0  0  0  0
 25 26  2  0  0  0  0
 25 78  1  0  0  0  0
 26 27  1  0  0  0  0
 26 79  1  0  0  0  0
 27 28  2  0  0  0  0
 27 80  1  0  0  0  0
 28 81  1  0  0  0  0
 29 30  1  0  0  0  0
 29 33  1  0  0  0  0
 29 44  1  0  0  0  0
 30  7  1  1  0  0  0
 30 31  1  0  0  0  0
 31 32  1  0  0  0  0
 31 38  1  0  0  0  0
 32 33  1  0  0  0  0
 32 37  1  0  0  0  0
 32 51  1  6  0  0  0
 33 34  1  0  0  0  0
 33 53  1  1  0  0  0
 34 35  1  0  0  0  0
 34 82  1  0  0  0  0
 34 83  1  0  0  0  0
 35 36  1  0  0  0  0
 35 84  1  0  0  0  0
 35 85  1  0  0  0  0
 36 37  1  0  0  0  0
 36 86  1  0  0  0  0
 36 87  1  0  0  0  0
 37 88  1  0  0  0  0
 37 89  1  0  0  0  0
 38 39  2  0  0  0  0
 38 43  1  0  0  0  0
 39 40  1  0  0  0  0
 39 90  1  0  0  0  0
 40 41  2  0  0  0  0
 40 91  1  0  0  0  0
 41 42  1  0  0  0  0
 41 92  1  0  0  0  0
 42 43  2  0  0  0  0
 42 93  1  0  0  0  0
 43 94  1  0  0  0  0
 44 45  2  0  0  0  0
 44 49  1  0  0  0  0
 45 46  1  0  0  0  0
 45 95  1  0  0  0  0
 46 47  2  0  0  0  0
 46 96  1  0  0  0  0
 47 48  1  0  0  0  0
 47 97  1  0  0  0  0
 48 49  2  0  0  0  0
 48 98  1  0  0  0  0
 49 99  1  0  0  0  0
M  END
$$$$
