Title Card Required
 OpenBabel03192317573D

102111  0  0  1  0  0  0  0  0999 V2000
   -2.5043    4.8500    2.3958 C   0  0  0  0  0  0  0  0  0  0  0  0
   -3.2871    4.0953    1.5229 C   0  0  0  0  0  0  0  0  0  0  0  0
   -2.7028    3.4105    0.4531 C   0  0  0  0  0  0  0  0  0  0  0  0
   -1.3278    3.5062    0.2643 C   0  0  0  0  0  0  0  0  0  0  0  0
   -0.5358    4.2492    1.1519 C   0  0  0  0  0  0  0  0  0  0  0  0
   -1.1194    4.9230    2.2190 C   0  0  0  0  0  0  0  0  0  0  0  0
    0.9485    4.1670    0.8469 C   0  0  2  0  0  0  0  0  0  0  0  0
   -0.5242    2.8226   -0.8197 C   0  0  1  0  0  0  0  0  0  0  0  0
    0.3696    3.8494   -1.4851 C   0  0  0  0  0  0  0  0  0  0  0  0
    1.1688    4.5776   -0.5913 C   0  0  0  0  0  0  0  0  0  0  0  0
    0.4702    4.0802   -2.8526 C   0  0  0  0  0  0  0  0  0  0  0  0
    1.3678    5.0433   -3.3256 C   0  0  0  0  0  0  0  0  0  0  0  0
    2.1634    5.7625   -2.4360 C   0  0  0  0  0  0  0  0  0  0  0  0
    2.0681    5.5297   -1.0599 C   0  0  0  0  0  0  0  0  0  0  0  0
    1.3013    2.6612    0.9363 C   0  0  1  0  0  0  0  0  0  0  0  0
    0.4531    1.8483   -0.1008 C   0  0  1  0  0  0  0  0  0  0  0  0
    2.7210    2.4239    0.7643 N   0  0  0  0  0  0  0  0  0  0  0  0
   -0.1655    0.7354    0.5952 N   0  0  0  0  0  0  0  0  0  0  0  0
    3.2112    1.2083    1.1340 C   0  0  0  0  0  0  0  0  0  0  0  0
    4.6198    0.8925    0.7291 C   0  0  0  0  0  0  0  0  0  0  0  0
    2.5234    0.4064    1.7490 O   0  0  0  0  0  0  0  0  0  0  0  0
   -1.3296    0.1268    0.2732 C   0  0  0  0  0  0  0  0  0  0  0  0
   -1.7535   -1.0199    1.1536 C   0  0  0  0  0  0  0  0  0  0  0  0
   -2.0299    0.4650   -0.6701 O   0  0  0  0  0  0  0  0  0  0  0  0
   -1.0900   -1.2874    2.3570 C   0  0  0  0  0  0  0  0  0  0  0  0
   -1.4415   -2.3785    3.1450 C   0  0  0  0  0  0  0  0  0  0  0  0
   -2.4789   -3.2091    2.7320 C   0  0  0  0  0  0  0  0  0  0  0  0
   -3.1652   -2.9364    1.5499 C   0  0  0  0  0  0  0  0  0  0  0  0
   -2.8291   -1.8412    0.7405 C   0  0  0  0  0  0  0  0  0  0  0  0
    5.5312    1.9378    0.5403 C   0  0  0  0  0  0  0  0  0  0  0  0
    6.8427    1.6854    0.1521 C   0  0  0  0  0  0  0  0  0  0  0  0
    7.2415    0.3691   -0.0571 C   0  0  0  0  0  0  0  0  0  0  0  0
    6.3418   -0.6784    0.1341 C   0  0  0  0  0  0  0  0  0  0  0  0
    5.0182   -0.4515    0.5391 C   0  0  0  0  0  0  0  0  0  0  0  0
    3.9281   -1.8993    0.9810 P   0  0  0  0  0  0  0  0  0  0  0  0
    2.5100   -1.7540   -0.1942 C   0  0  0  0  0  0  0  0  0  0  0  0
    2.4726   -0.9185   -1.3171 C   0  0  0  0  0  0  0  0  0  0  0  0
    1.3496   -0.8988   -2.1465 C   0  0  0  0  0  0  0  0  0  0  0  0
    0.2558   -1.7221   -1.8763 C   0  0  0  0  0  0  0  0  0  0  0  0
    0.2932   -2.5690   -0.7685 C   0  0  0  0  0  0  0  0  0  0  0  0
    1.4060   -2.5740    0.0718 C   0  0  0  0  0  0  0  0  0  0  0  0
    4.8619   -3.2737    0.1582 C   0  0  0  0  0  0  0  0  0  0  0  0
    5.6278   -4.1005    0.9893 C   0  0  0  0  0  0  0  0  0  0  0  0
    6.3706   -5.1562    0.4590 C   0  0  0  0  0  0  0  0  0  0  0  0
    6.3421   -5.4052   -0.9117 C   0  0  0  0  0  0  0  0  0  0  0  0
    5.5708   -4.5964   -1.7482 C   0  0  0  0  0  0  0  0  0  0  0  0
    4.8356   -3.5384   -1.2176 C   0  0  0  0  0  0  0  0  0  0  0  0
   -3.7051   -1.5515   -0.8809 P   0  0  0  0  0  0  0  0  0  0  0  0
   -4.9837   -2.8945   -0.8052 C   0  0  0  0  0  0  0  0  0  0  0  0
   -6.2500   -2.7728   -0.2188 C   0  0  0  0  0  0  0  0  0  0  0  0
   -7.1421   -3.8455   -0.2287 C   0  0  0  0  0  0  0  0  0  0  0  0
   -6.7816   -5.0555   -0.8207 C   0  0  0  0  0  0  0  0  0  0  0  0
   -5.5264   -5.1869   -1.4147 C   0  0  0  0  0  0  0  0  0  0  0  0
   -4.6420   -4.1097   -1.4150 C   0  0  0  0  0  0  0  0  0  0  0  0
   -4.7416   -0.0772   -0.4747 C   0  0  0  0  0  0  0  0  0  0  0  0
   -5.2444    0.6700   -1.5455 C   0  0  0  0  0  0  0  0  0  0  0  0
   -6.0159    1.8093   -1.3192 C   0  0  0  0  0  0  0  0  0  0  0  0
   -6.2926    2.2180   -0.0147 C   0  0  0  0  0  0  0  0  0  0  0  0
   -5.7935    1.4804    1.0588 C   0  0  0  0  0  0  0  0  0  0  0  0
   -5.0208    0.3416    0.8312 C   0  0  0  0  0  0  0  0  0  0  0  0
   -2.9733    5.3804    3.2262 H   0  0  0  0  0  0  0  0  0  0  0  0
   -4.3661    4.0304    1.6733 H   0  0  0  0  0  0  0  0  0  0  0  0
   -3.3096    2.7927   -0.2149 H   0  0  0  0  0  0  0  0  0  0  0  0
   -0.5020    5.5011    2.9102 H   0  0  0  0  0  0  0  0  0  0  0  0
    1.5558    4.7468    1.5547 H   0  0  0  0  0  0  0  0  0  0  0  0
   -1.1509    2.2920   -1.5381 H   0  0  0  0  0  0  0  0  0  0  0  0
   -0.1522    3.5130   -3.5479 H   0  0  0  0  0  0  0  0  0  0  0  0
    1.4447    5.2320   -4.3974 H   0  0  0  0  0  0  0  0  0  0  0  0
    2.8602    6.5125   -2.8135 H   0  0  0  0  0  0  0  0  0  0  0  0
    2.6846    6.0967   -0.3583 H   0  0  0  0  0  0  0  0  0  0  0  0
    1.0363    2.3106    1.9410 H   0  0  0  0  0  0  0  0  0  0  0  0
    1.1448    1.4595   -0.8655 H   0  0  0  0  0  0  0  0  0  0  0  0
    3.1965    2.9445    0.0339 H   0  0  0  0  0  0  0  0  0  0  0  0
    0.4817    0.2557    1.2155 H   0  0  0  0  0  0  0  0  0  0  0  0
   -0.2840   -0.6369    2.7003 H   0  0  0  0  0  0  0  0  0  0  0  0
   -0.9096   -2.5722    4.0772 H   0  0  0  0  0  0  0  0  0  0  0  0
   -2.7694   -4.0701    3.3365 H   0  0  0  0  0  0  0  0  0  0  0  0
   -3.9849   -3.5935    1.2596 H   0  0  0  0  0  0  0  0  0  0  0  0
    5.2155    2.9653    0.7301 H   0  0  0  0  0  0  0  0  0  0  0  0
    7.5455    2.5086    0.0193 H   0  0  0  0  0  0  0  0  0  0  0  0
    8.2637    0.1473   -0.3683 H   0  0  0  0  0  0  0  0  0  0  0  0
    6.6863   -1.6990   -0.0342 H   0  0  0  0  0  0  0  0  0  0  0  0
    3.3256   -0.2727   -1.5454 H   0  0  0  0  0  0  0  0  0  0  0  0
    1.3281   -0.2317   -3.0109 H   0  0  0  0  0  0  0  0  0  0  0  0
   -0.6347   -1.6877   -2.5066 H   0  0  0  0  0  0  0  0  0  0  0  0
   -0.5629   -3.2064   -0.5370 H   0  0  0  0  0  0  0  0  0  0  0  0
    1.4126   -3.2188    0.9547 H   0  0  0  0  0  0  0  0  0  0  0  0
    5.6393   -3.9131    2.0662 H   0  0  0  0  0  0  0  0  0  0  0  0
    6.9656   -5.7896    1.1191 H   0  0  0  0  0  0  0  0  0  0  0  0
    6.9158   -6.2339   -1.3301 H   0  0  0  0  0  0  0  0  0  0  0  0
    5.5401   -4.7931   -2.8212 H   0  0  0  0  0  0  0  0  0  0  0  0
    4.2310   -2.9131   -1.8783 H   0  0  0  0  0  0  0  0  0  0  0  0
   -6.5431   -1.8321    0.2515 H   0  0  0  0  0  0  0  0  0  0  0  0
   -8.1262   -3.7339    0.2303 H   0  0  0  0  0  0  0  0  0  0  0  0
   -7.4807   -5.8933   -0.8265 H   0  0  0  0  0  0  0  0  0  0  0  0
   -5.2398   -6.1269   -1.8894 H   0  0  0  0  0  0  0  0  0  0  0  0
   -3.6652   -4.2101   -1.8971 H   0  0  0  0  0  0  0  0  0  0  0  0
   -5.0152    0.3628   -2.5688 H   0  0  0  0  0  0  0  0  0  0  0  0
   -6.3965    2.3840   -2.1654 H   0  0  0  0  0  0  0  0  0  0  0  0
   -6.8930    3.1116    0.1653 H   0  0  0  0  0  0  0  0  0  0  0  0
   -6.0029    1.7937    2.0835 H   0  0  0  0  0  0  0  0  0  0  0  0
   -4.6288   -0.2220    1.6811 H   0  0  0  0  0  0  0  0  0  0  0  0
  1  2  2  0  0  0  0
  1  6  1  0  0  0  0
  1 61  1  0  0  0  0
  2  3  1  0  0  0  0
  2 62  1  0  0  0  0
  3  4  2  0  0  0  0
  3 63  1  0  0  0  0
  4  5  1  0  0  0  0
  4  8  1  0  0  0  0
  5  6  2  0  0  0  0
  5  7  1  0  0  0  0
  6 64  1  0  0  0  0
  7 10  1  0  0  0  0
  7 15  1  0  0  0  0
  7 65  1  1  0  0  0
  8  9  1  0  0  0  0
  8 16  1  0  0  0  0
  8 66  1  6  0  0  0
  9 10  2  0  0  0  0
  9 11  1  0  0  0  0
 10 14  1  0  0  0  0
 11 12  2  0  0  0  0
 11 67  1  0  0  0  0
 12 13  1  0  0  0  0
 12 68  1  0  0  0  0
 13 14  2  0  0  0  0
 13 69  1  0  0  0  0
 14 70  1  0  0  0  0
 15 16  1  0  0  0  0
 15 17  1  0  0  0  0
 15 71  1  1  0  0  0
 16 18  1  0  0  0  0
 16 72  1  6  0  0  0
 17 19  1  0  0  0  0
 17 73  1  0  0  0  0
 18 22  1  0  0  0  0
 18 74  1  0  0  0  0
 19 20  1  0  0  0  0
 19 21  2  0  0  0  0
 20 30  2  0  0  0  0
 20 34  1  0  0  0  0
 22 23  1  0  0  0  0
 22 24  2  0  0  0  0
 23 25  2  0  0  0  0
 23 29  1  0  0  0  0
 25 26  1  0  0  0  0
 25 75  1  0  0  0  0
 26 27  2  0  0  0  0
 26 76  1  0  0  0  0
 27 28  1  0  0  0  0
 27 77  1  0  0  0  0
 28 29  2  0  0  0  0
 28 78  1  0  0  0  0
 29 48  1  0  0  0  0
 30 31  1  0  0  0  0
 30 79  1  0  0  0  0
 31 32  2  0  0  0  0
 31 80  1  0  0  0  0
 32 33  1  0  0  0  0
 32 81  1  0  0  0  0
 33 34  2  0  0  0  0
 33 82  1  0  0  0  0
 34 35  1  0  0  0  0
 35 36  1  0  0  0  0
 35 42  1  0  0  0  0
 36 37  2  0  0  0  0
 36 41  1  0  0  0  0
 37 38  1  0  0  0  0
 37 83  1  0  0  0  0
 38 39  2  0  0  0  0
 38 84  1  0  0  0  0
 39 40  1  0  0  0  0
 39 85  1  0  0  0  0
 40 41  2  0  0  0  0
 40 86  1  0  0  0  0
 41 87  1  0  0  0  0
 42 43  2  0  0  0  0
 42 47  1  0  0  0  0
 43 44  1  0  0  0  0
 43 88  1  0  0  0  0
 44 45  2  0  0  0  0
 44 89  1  0  0  0  0
 45 46  1  0  0  0  0
 45 90  1  0  0  0  0
 46 47  2  0  0  0  0
 46 91  1  0  0  0  0
 47 92  1  0  0  0  0
 48 49  1  0  0  0  0
 48 55  1  0  0  0  0
 49 50  2  0  0  0  0
 49 54  1  0  0  0  0
 50 51  1  0  0  0  0
 50 93  1  0  0  0  0
 51 52  2  0  0  0  0
 51 94  1  0  0  0  0
 52 53  1  0  0  0  0
 52 95  1  0  0  0  0
 53 54  2  0  0  0  0
 53 96  1  0  0  0  0
 54 97  1  0  0  0  0
 55 56  2  0  0  0  0
 55 60  1  0  0  0  0
 56 57  1  0  0  0  0
 56 98  1  0  0  0  0
 57 58  2  0  0  0  0
 57 99  1  0  0  0  0
 58 59  1  0  0  0  0
 58100  1  0  0  0  0
 59 60  2  0  0  0  0
 59101  1  0  0  0  0
 60102  1  0  0  0  0
M  END
$$$$
