Title Card Required
 OpenBabel03192317443D

100107  0  0  1  0  0  0  0  0999 V2000
   -0.2396   -0.7361   -1.2854 C   0  0  1  0  0  0  0  0  0  0  0  0
    0.5721    0.5124   -1.7302 C   0  0  1  0  0  0  0  0  0  0  0  0
   -0.3981    1.5679   -2.2387 C   0  0  0  0  0  0  0  0  0  0  0  0
   -0.6002    1.7199   -3.6129 C   0  0  0  0  0  0  0  0  0  0  0  0
   -1.5705    2.5970   -4.0974 C   0  0  0  0  0  0  0  0  0  0  0  0
   -2.3583    3.3276   -3.2104 C   0  0  0  0  0  0  0  0  0  0  0  0
   -2.1598    3.1912   -1.8370 C   0  0  0  0  0  0  0  0  0  0  0  0
   -1.1792    2.3266   -1.3575 C   0  0  0  0  0  0  0  0  0  0  0  0
    0.4380   -2.0925   -1.4114 C   0  0  0  0  0  0  0  0  0  0  0  0
   -0.3362   -3.2110   -1.0694 C   0  0  0  0  0  0  0  0  0  0  0  0
    0.1911   -4.4950   -1.1545 C   0  0  0  0  0  0  0  0  0  0  0  0
    1.5070   -4.6820   -1.5883 C   0  0  0  0  0  0  0  0  0  0  0  0
    2.2759   -3.5762   -1.9403 C   0  0  0  0  0  0  0  0  0  0  0  0
    1.7459   -2.2844   -1.8575 C   0  0  0  0  0  0  0  0  0  0  0  0
   -2.0486   -0.1926    0.2876 C   0  0  0  0  0  0  0  0  0  0  0  0
   -2.3597    0.2842    1.6868 C   0  0  0  0  0  0  0  0  0  0  0  0
   -3.6636    0.2224    2.2336 C   0  0  0  0  0  0  0  0  0  0  0  0
   -3.8514    0.6977    3.5388 C   0  0  0  0  0  0  0  0  0  0  0  0
   -2.8151    1.2643    4.2821 C   0  0  0  0  0  0  0  0  0  0  0  0
   -1.5486    1.3615    3.7212 C   0  0  0  0  0  0  0  0  0  0  0  0
   -1.3307    0.8678    2.4361 C   0  0  0  0  0  0  0  0  0  0  0  0
   -2.8877   -0.2324   -0.5857 O   0  0  0  0  0  0  0  0  0  0  0  0
   -0.7456   -0.5247    0.0563 N   0  0  0  0  0  0  0  0  0  0  0  0
   -5.2690   -0.3271    1.4574 P   0  0  0  0  0  0  0  0  0  0  0  0
   -5.5039    0.9469    0.1370 C   0  0  0  0  0  0  0  0  0  0  0  0
   -5.3869    0.7397   -1.2418 C   0  0  0  0  0  0  0  0  0  0  0  0
   -5.6415    1.7808   -2.1325 C   0  0  0  0  0  0  0  0  0  0  0  0
   -5.9994    3.0445   -1.6623 C   0  0  0  0  0  0  0  0  0  0  0  0
   -6.1158    3.2614   -0.2901 C   0  0  0  0  0  0  0  0  0  0  0  0
   -5.8849    2.2133    0.6000 C   0  0  0  0  0  0  0  0  0  0  0  0
   -4.8985   -1.9097    0.6131 C   0  0  0  0  0  0  0  0  0  0  0  0
   -3.8400   -2.7330    1.0183 C   0  0  0  0  0  0  0  0  0  0  0  0
   -3.6793   -4.0055    0.4730 C   0  0  0  0  0  0  0  0  0  0  0  0
   -4.5693   -4.4753   -0.4924 C   0  0  0  0  0  0  0  0  0  0  0  0
   -5.6353   -3.6701   -0.8906 C   0  0  0  0  0  0  0  0  0  0  0  0
   -5.8081   -2.4050   -0.3310 C   0  0  0  0  0  0  0  0  0  0  0  0
    2.7691    1.1159   -0.7438 C   0  0  0  0  0  0  0  0  0  0  0  0
    3.4002    2.2308    0.0600 C   0  0  0  0  0  0  0  0  0  0  0  0
    4.4740    2.0469    0.9537 C   0  0  0  0  0  0  0  0  0  0  0  0
    5.0661    3.1840    1.5173 C   0  0  0  0  0  0  0  0  0  0  0  0
    4.6298    4.4719    1.2043 C   0  0  0  0  0  0  0  0  0  0  0  0
    3.5573    4.6419    0.3362 C   0  0  0  0  0  0  0  0  0  0  0  0
    2.9436    3.5223   -0.2247 C   0  0  0  0  0  0  0  0  0  0  0  0
    3.4265    0.4032   -1.4740 O   0  0  0  0  0  0  0  0  0  0  0  0
    1.4085    1.0630   -0.6691 N   0  0  0  0  0  0  0  0  0  0  0  0
    5.1101    0.4413    1.6255 P   0  0  0  0  0  0  0  0  0  0  0  0
    3.5459   -0.5213    1.8125 C   0  0  0  0  0  0  0  0  0  0  0  0
    3.2172   -1.6690    1.0865 C   0  0  0  0  0  0  0  0  0  0  0  0
    2.0719   -2.4027    1.4072 C   0  0  0  0  0  0  0  0  0  0  0  0
    1.2368   -1.9904    2.4442 C   0  0  0  0  0  0  0  0  0  0  0  0
    1.5488   -0.8333    3.1649 C   0  0  0  0  0  0  0  0  0  0  0  0
    2.6987   -0.1117    2.8553 C   0  0  0  0  0  0  0  0  0  0  0  0
    5.9976   -0.3562    0.2318 C   0  0  0  0  0  0  0  0  0  0  0  0
    6.2815    0.2909   -0.9746 C   0  0  0  0  0  0  0  0  0  0  0  0
    7.0678   -0.3345   -1.9405 C   0  0  0  0  0  0  0  0  0  0  0  0
    7.5703   -1.6154   -1.7188 C   0  0  0  0  0  0  0  0  0  0  0  0
    7.2973   -2.2669   -0.5158 C   0  0  0  0  0  0  0  0  0  0  0  0
    6.5307   -1.6334    0.4597 C   0  0  0  0  0  0  0  0  0  0  0  0
   -1.1330   -0.7702   -1.9253 H   0  0  0  0  0  0  0  0  0  0  0  0
    1.2456    0.2313   -2.5501 H   0  0  0  0  0  0  0  0  0  0  0  0
    0.0031    1.1357   -4.3117 H   0  0  0  0  0  0  0  0  0  0  0  0
   -1.7139    2.7036   -5.1738 H   0  0  0  0  0  0  0  0  0  0  0  0
   -3.1299    4.0014   -3.5863 H   0  0  0  0  0  0  0  0  0  0  0  0
   -2.7858    3.7442   -1.1347 H   0  0  0  0  0  0  0  0  0  0  0  0
   -1.0591    2.2235   -0.2754 H   0  0  0  0  0  0  0  0  0  0  0  0
   -1.3665   -3.0609   -0.7341 H   0  0  0  0  0  0  0  0  0  0  0  0
   -0.4265   -5.3549   -0.8880 H   0  0  0  0  0  0  0  0  0  0  0  0
    1.9261   -5.6873   -1.6548 H   0  0  0  0  0  0  0  0  0  0  0  0
    3.3061   -3.7087   -2.2762 H   0  0  0  0  0  0  0  0  0  0  0  0
    2.3873   -1.4357   -2.0987 H   0  0  0  0  0  0  0  0  0  0  0  0
   -4.8489    0.6251    3.9775 H   0  0  0  0  0  0  0  0  0  0  0  0
   -3.0056    1.6333    5.2910 H   0  0  0  0  0  0  0  0  0  0  0  0
   -0.7268    1.8211    4.2731 H   0  0  0  0  0  0  0  0  0  0  0  0
   -0.3321    0.9622    2.0053 H   0  0  0  0  0  0  0  0  0  0  0  0
   -0.0839   -0.6174    0.8201 H   0  0  0  0  0  0  0  0  0  0  0  0
   -5.0577   -0.2275   -1.6190 H   0  0  0  0  0  0  0  0  0  0  0  0
   -5.5388    1.6056   -3.2049 H   0  0  0  0  0  0  0  0  0  0  0  0
   -6.1917    3.8573   -2.3653 H   0  0  0  0  0  0  0  0  0  0  0  0
   -6.4032    4.2434    0.0898 H   0  0  0  0  0  0  0  0  0  0  0  0
   -6.0011    2.3835    1.6743 H   0  0  0  0  0  0  0  0  0  0  0  0
   -3.1272   -2.3770    1.7667 H   0  0  0  0  0  0  0  0  0  0  0  0
   -2.8483   -4.6324    0.8034 H   0  0  0  0  0  0  0  0  0  0  0  0
   -4.4388   -5.4683   -0.9252 H   0  0  0  0  0  0  0  0  0  0  0  0
   -6.3457   -4.0326   -1.6355 H   0  0  0  0  0  0  0  0  0  0  0  0
   -6.6631   -1.7953   -0.6345 H   0  0  0  0  0  0  0  0  0  0  0  0
    5.8796    3.0485    2.2335 H   0  0  0  0  0  0  0  0  0  0  0  0
    5.1197    5.3367    1.6541 H   0  0  0  0  0  0  0  0  0  0  0  0
    3.1961    5.6412    0.0895 H   0  0  0  0  0  0  0  0  0  0  0  0
    2.1131    3.6534   -0.9236 H   0  0  0  0  0  0  0  0  0  0  0  0
    0.9697    1.7430   -0.0599 H   0  0  0  0  0  0  0  0  0  0  0  0
    3.8503   -1.9914    0.2573 H   0  0  0  0  0  0  0  0  0  0  0  0
    1.8282   -3.2970    0.8300 H   0  0  0  0  0  0  0  0  0  0  0  0
    0.3440   -2.5685    2.6921 H   0  0  0  0  0  0  0  0  0  0  0  0
    0.9034   -0.5087    3.9834 H   0  0  0  0  0  0  0  0  0  0  0  0
    2.9588    0.7730    3.4441 H   0  0  0  0  0  0  0  0  0  0  0  0
    5.8633    1.2782   -1.1726 H   0  0  0  0  0  0  0  0  0  0  0  0
    7.2776    0.1805   -2.8792 H   0  0  0  0  0  0  0  0  0  0  0  0
    8.1786   -2.1052   -2.4809 H   0  0  0  0  0  0  0  0  0  0  0  0
    7.6942   -3.2664   -0.3302 H   0  0  0  0  0  0  0  0  0  0  0  0
    6.3427   -2.1392    1.4112 H   0  0  0  0  0  0  0  0  0  0  0  0
  1  2  1  0  0  0  0
  1  9  1  0  0  0  0
  1 23  1  0  0  0  0
  1 59  1  6  0  0  0
  2  3  1  0  0  0  0
  2 45  1  0  0  0  0
  2 60  1  6  0  0  0
  3  4  2  0  0  0  0
  3  8  1  0  0  0  0
  4  5  1  0  0  0  0
  4 61  1  0  0  0  0
  5  6  2  0  0  0  0
  5 62  1  0  0  0  0
  6  7  1  0  0  0  0
  6 63  1  0  0  0  0
  7  8  2  0  0  0  0
  7 64  1  0  0  0  0
  8 65  1  0  0  0  0
  9 10  2  0  0  0  0
  9 14  1  0  0  0  0
 10 11  1  0  0  0  0
 10 66  1  0  0  0  0
 11 12  2  0  0  0  0
 11 67  1  0  0  0  0
 12 13  1  0  0  0  0
 12 68  1  0  0  0  0
 13 14  2  0  0  0  0
 13 69  1  0  0  0  0
 14 70  1  0  0  0  0
 15 16  1  0  0  0  0
 15 22  2  0  0  0  0
 15 23  1  0  0  0  0
 16 17  2  0  0  0  0
 16 21  1  0  0  0  0
 17 18  1  0  0  0  0
 17 24  1  0  0  0  0
 18 19  2  0  0  0  0
 18 71  1  0  0  0  0
 19 20  1  0  0  0  0
 19 72  1  0  0  0  0
 20 21  2  0  0  0  0
 20 73  1  0  0  0  0
 21 74  1  0  0  0  0
 23 75  1  0  0  0  0
 24 25  1  0  0  0  0
 24 31  1  0  0  0  0
 25 26  2  0  0  0  0
 25 30  1  0  0  0  0
 26 27  1  0  0  0  0
 26 76  1  0  0  0  0
 27 28  2  0  0  0  0
 27 77  1  0  0  0  0
 28 29  1  0  0  0  0
 28 78  1  0  0  0  0
 29 30  2  0  0  0  0
 29 79  1  0  0  0  0
 30 80  1  0  0  0  0
 31 32  2  0  0  0  0
 31 36  1  0  0  0  0
 32 33  1  0  0  0  0
 32 81  1  0  0  0  0
 33 34  2  0  0  0  0
 33 82  1  0  0  0  0
 34 35  1  0  0  0  0
 34 83  1  0  0  0  0
 35 36  2  0  0  0  0
 35 84  1  0  0  0  0
 36 85  1  0  0  0  0
 37 38  1  0  0  0  0
 37 44  2  0  0  0  0
 37 45  1  0  0  0  0
 38 39  2  0  0  0  0
 38 43  1  0  0  0  0
 39 40  1  0  0  0  0
 39 46  1  0  0  0  0
 40 41  2  0  0  0  0
 40 86  1  0  0  0  0
 41 42  1  0  0  0  0
 41 87  1  0  0  0  0
 42 43  2  0  0  0  0
 42 88  1  0  0  0  0
 43 89  1  0  0  0  0
 45 90  1  0  0  0  0
 46 47  1  0  0  0  0
 46 53  1  0  0  0  0
 47 48  2  0  0  0  0
 47 52  1  0  0  0  0
 48 49  1  0  0  0  0
 48 91  1  0  0  0  0
 49 50  2  0  0  0  0
 49 92  1  0  0  0  0
 50 51  1  0  0  0  0
 50 93  1  0  0  0  0
 51 52  2  0  0  0  0
 51 94  1  0  0  0  0
 52 95  1  0  0  0  0
 53 54  2  0  0  0  0
 53 58  1  0  0  0  0
 54 55  1  0  0  0  0
 54 96  1  0  0  0  0
 55 56  2  0  0  0  0
 55 97  1  0  0  0  0
 56 57  1  0  0  0  0
 56 98  1  0  0  0  0
 57 58  2  0  0  0  0
 57 99  1  0  0  0  0
 58100  1  0  0  0  0
M  END
$$$$
