Title Card Required
 OpenBabel03192317573D

 90 96  0  0  1  0  0  0  0  0999 V2000
   -0.5939    2.6098   -1.2440 C   0  0  1  0  0  0  0  0  0  0  0  0
    0.8710    2.9524   -0.9755 C   0  0  1  0  0  0  0  0  0  0  0  0
    1.0696    4.4711   -0.9218 C   0  0  0  0  0  0  0  0  0  0  0  0
    0.5568    5.1718   -2.1775 C   0  0  0  0  0  0  0  0  0  0  0  0
   -0.9078    4.8243   -2.4302 C   0  0  0  0  0  0  0  0  0  0  0  0
   -1.0910    3.3128   -2.5137 C   0  0  0  0  0  0  0  0  0  0  0  0
   -2.0148    0.6578   -1.3199 C   0  0  0  0  0  0  0  0  0  0  0  0
   -2.1630   -0.7881   -1.7114 C   0  0  0  0  0  0  0  0  0  0  0  0
   -2.8361   -1.7205   -0.9056 C   0  0  0  0  0  0  0  0  0  0  0  0
   -3.1137   -2.9830   -1.4471 C   0  0  0  0  0  0  0  0  0  0  0  0
   -2.7530   -3.3139   -2.7525 C   0  0  0  0  0  0  0  0  0  0  0  0
   -2.0610   -2.3900   -3.5332 C   0  0  0  0  0  0  0  0  0  0  0  0
   -1.7598   -1.1361   -3.0059 C   0  0  0  0  0  0  0  0  0  0  0  0
   -3.0003    1.3404   -1.0980 O   0  0  0  0  0  0  0  0  0  0  0  0
   -0.7641    1.1720   -1.3498 N   0  0  0  0  0  0  0  0  0  0  0  0
   -3.3251   -1.5233    0.8690 P   0  0  0  0  0  0  0  0  0  0  0  0
   -2.2045   -0.2221    1.5480 C   0  0  0  0  0  0  0  0  0  0  0  0
   -2.6046    1.0900    1.8266 C   0  0  0  0  0  0  0  0  0  0  0  0
   -1.7462    1.9564    2.5058 C   0  0  0  0  0  0  0  0  0  0  0  0
   -0.4832    1.5237    2.9125 C   0  0  0  0  0  0  0  0  0  0  0  0
   -0.0669    0.2248    2.6159 C   0  0  0  0  0  0  0  0  0  0  0  0
   -0.9238   -0.6400    1.9393 C   0  0  0  0  0  0  0  0  0  0  0  0
   -4.9532   -0.6725    0.7660 C   0  0  0  0  0  0  0  0  0  0  0  0
   -5.5079   -0.1638   -0.4129 C   0  0  0  0  0  0  0  0  0  0  0  0
   -6.7768    0.4150   -0.3982 C   0  0  0  0  0  0  0  0  0  0  0  0
   -7.4989    0.5037    0.7905 C   0  0  0  0  0  0  0  0  0  0  0  0
   -6.9527   -0.0004    1.9713 C   0  0  0  0  0  0  0  0  0  0  0  0
   -5.6947   -0.5972    1.9546 C   0  0  0  0  0  0  0  0  0  0  0  0
    2.1752    1.2596    0.2744 C   0  0  0  0  0  0  0  0  0  0  0  0
    2.9558    1.0535    1.5565 C   0  0  0  0  0  0  0  0  0  0  0  0
    3.6412   -0.1482    1.8642 C   0  0  0  0  0  0  0  0  0  0  0  0
    4.2973   -0.2294    3.1031 C   0  0  0  0  0  0  0  0  0  0  0  0
    4.3102    0.8206    4.0196 C   0  0  0  0  0  0  0  0  0  0  0  0
    3.6881    2.0155    3.6854 C   0  0  0  0  0  0  0  0  0  0  0  0
    3.0338    2.1229    2.4609 C   0  0  0  0  0  0  0  0  0  0  0  0
    2.2908    0.5362   -0.6981 O   0  0  0  0  0  0  0  0  0  0  0  0
    1.3769    2.3638    0.2478 N   0  0  0  0  0  0  0  0  0  0  0  0
    3.8961   -1.7298    0.9045 P   0  0  0  0  0  0  0  0  0  0  0  0
    2.2143   -2.4221    0.6054 C   0  0  0  0  0  0  0  0  0  0  0  0
    1.4837   -2.3189   -0.5852 C   0  0  0  0  0  0  0  0  0  0  0  0
    0.3019   -3.0426   -0.7447 C   0  0  0  0  0  0  0  0  0  0  0  0
   -0.1766   -3.8566    0.2827 C   0  0  0  0  0  0  0  0  0  0  0  0
    0.5339   -3.9514    1.4785 C   0  0  0  0  0  0  0  0  0  0  0  0
    1.7280   -3.2481    1.6304 C   0  0  0  0  0  0  0  0  0  0  0  0
    4.5458   -1.2326   -0.7333 C   0  0  0  0  0  0  0  0  0  0  0  0
    5.2096   -0.0161   -0.9297 C   0  0  0  0  0  0  0  0  0  0  0  0
    5.8377    0.2612   -2.1410 C   0  0  0  0  0  0  0  0  0  0  0  0
    5.8133   -0.6721   -3.1771 C   0  0  0  0  0  0  0  0  0  0  0  0
    5.1654   -1.8912   -2.9866 C   0  0  0  0  0  0  0  0  0  0  0  0
    4.5470   -2.1748   -1.7695 C   0  0  0  0  0  0  0  0  0  0  0  0
   -1.2044    2.9593   -0.3907 H   0  0  0  0  0  0  0  0  0  0  0  0
    1.4775    2.5308   -1.7942 H   0  0  0  0  0  0  0  0  0  0  0  0
    0.5244    4.8591   -0.0416 H   0  0  0  0  0  0  0  0  0  0  0  0
    2.1371    4.6795   -0.7575 H   0  0  0  0  0  0  0  0  0  0  0  0
    0.6935    6.2591   -2.0814 H   0  0  0  0  0  0  0  0  0  0  0  0
    1.1613    4.8508   -3.0428 H   0  0  0  0  0  0  0  0  0  0  0  0
   -1.5270    5.2215   -1.6077 H   0  0  0  0  0  0  0  0  0  0  0  0
   -1.2666    5.3021   -3.3534 H   0  0  0  0  0  0  0  0  0  0  0  0
   -0.5196    2.9144   -3.3707 H   0  0  0  0  0  0  0  0  0  0  0  0
   -2.1466    3.0500   -2.6636 H   0  0  0  0  0  0  0  0  0  0  0  0
   -3.6189   -3.7239   -0.8217 H   0  0  0  0  0  0  0  0  0  0  0  0
   -2.9978   -4.2994   -3.1518 H   0  0  0  0  0  0  0  0  0  0  0  0
   -1.7584   -2.6428   -4.5505 H   0  0  0  0  0  0  0  0  0  0  0  0
   -1.2338   -0.3959   -3.6128 H   0  0  0  0  0  0  0  0  0  0  0  0
    0.0544    0.5677   -1.4002 H   0  0  0  0  0  0  0  0  0  0  0  0
   -3.5873    1.4350    1.5006 H   0  0  0  0  0  0  0  0  0  0  0  0
   -2.0765    2.9726    2.7310 H   0  0  0  0  0  0  0  0  0  0  0  0
    0.1748    2.1912    3.4759 H   0  0  0  0  0  0  0  0  0  0  0  0
    0.9164   -0.1287    2.9340 H   0  0  0  0  0  0  0  0  0  0  0  0
   -0.6027   -1.6645    1.7405 H   0  0  0  0  0  0  0  0  0  0  0  0
   -4.9331   -0.1896   -1.3383 H   0  0  0  0  0  0  0  0  0  0  0  0
   -7.1976    0.8105   -1.3242 H   0  0  0  0  0  0  0  0  0  0  0  0
   -8.4889    0.9628    0.7979 H   0  0  0  0  0  0  0  0  0  0  0  0
   -7.5137    0.0589    2.9055 H   0  0  0  0  0  0  0  0  0  0  0  0
   -5.2788   -1.0113    2.8775 H   0  0  0  0  0  0  0  0  0  0  0  0
    4.8243   -1.1540    3.3458 H   0  0  0  0  0  0  0  0  0  0  0  0
    4.8268    0.7072    4.9738 H   0  0  0  0  0  0  0  0  0  0  0  0
    3.7171    2.8703    4.3625 H   0  0  0  0  0  0  0  0  0  0  0  0
    2.5940    3.0852    2.2020 H   0  0  0  0  0  0  0  0  0  0  0  0
    1.0429    2.7541    1.1194 H   0  0  0  0  0  0  0  0  0  0  0  0
    1.8556   -1.6803   -1.3877 H   0  0  0  0  0  0  0  0  0  0  0  0
   -0.2527   -2.9726   -1.6810 H   0  0  0  0  0  0  0  0  0  0  0  0
   -1.1058   -4.4130    0.1476 H   0  0  0  0  0  0  0  0  0  0  0  0
    0.1686   -4.5860    2.2874 H   0  0  0  0  0  0  0  0  0  0  0  0
    2.3089   -3.3599    2.5501 H   0  0  0  0  0  0  0  0  0  0  0  0
    5.2273    0.7291   -0.1310 H   0  0  0  0  0  0  0  0  0  0  0  0
    6.3458    1.2174   -2.2784 H   0  0  0  0  0  0  0  0  0  0  0  0
    6.3019   -0.4521   -4.1275 H   0  0  0  0  0  0  0  0  0  0  0  0
    5.1459   -2.6325   -3.7874 H   0  0  0  0  0  0  0  0  0  0  0  0
    4.0575   -3.1420   -1.6278 H   0  0  0  0  0  0  0  0  0  0  0  0
  1  2  1  0  0  0  0
  1  6  1  0  0  0  0
  1 15  1  0  0  0  0
  1 51  1  1  0  0  0
  2  3  1  0  0  0  0
  2 37  1  0  0  0  0
  2 52  1  6  0  0  0
  3  4  1  0  0  0  0
  3 53  1  0  0  0  0
  3 54  1  0  0  0  0
  4  5  1  0  0  0  0
  4 55  1  0  0  0  0
  4 56  1  0  0  0  0
  5  6  1  0  0  0  0
  5 57  1  0  0  0  0
  5 58  1  0  0  0  0
  6 59  1  0  0  0  0
  6 60  1  0  0  0  0
  7  8  1  0  0  0  0
  7 14  2  0  0  0  0
  7 15  1  0  0  0  0
  8  9  2  0  0  0  0
  8 13  1  0  0  0  0
  9 10  1  0  0  0  0
  9 16  1  0  0  0  0
 10 11  2  0  0  0  0
 10 61  1  0  0  0  0
 11 12  1  0  0  0  0
 11 62  1  0  0  0  0
 12 13  2  0  0  0  0
 12 63  1  0  0  0  0
 13 64  1  0  0  0  0
 15 65  1  0  0  0  0
 16 17  1  0  0  0  0
 16 23  1  0  0  0  0
 17 18  2  0  0  0  0
 17 22  1  0  0  0  0
 18 19  1  0  0  0  0
 18 66  1  0  0  0  0
 19 20  2  0  0  0  0
 19 67  1  0  0  0  0
 20 21  1  0  0  0  0
 20 68  1  0  0  0  0
 21 22  2  0  0  0  0
 21 69  1  0  0  0  0
 22 70  1  0  0  0  0
 23 24  2  0  0  0  0
 23 28  1  0  0  0  0
 24 25  1  0  0  0  0
 24 71  1  0  0  0  0
 25 26  2  0  0  0  0
 25 72  1  0  0  0  0
 26 27  1  0  0  0  0
 26 73  1  0  0  0  0
 27 28  2  0  0  0  0
 27 74  1  0  0  0  0
 28 75  1  0  0  0  0
 29 30  1  0  0  0  0
 29 36  2  0  0  0  0
 29 37  1  0  0  0  0
 30 31  2  0  0  0  0
 30 35  1  0  0  0  0
 31 32  1  0  0  0  0
 31 38  1  0  0  0  0
 32 33  2  0  0  0  0
 32 76  1  0  0  0  0
 33 34  1  0  0  0  0
 33 77  1  0  0  0  0
 34 35  2  0  0  0  0
 34 78  1  0  0  0  0
 35 79  1  0  0  0  0
 37 80  1  0  0  0  0
 38 39  1  0  0  0  0
 38 45  1  0  0  0  0
 39 40  2  0  0  0  0
 39 44  1  0  0  0  0
 40 41  1  0  0  0  0
 40 81  1  0  0  0  0
 41 42  2  0  0  0  0
 41 82  1  0  0  0  0
 42 43  1  0  0  0  0
 42 83  1  0  0  0  0
 43 44  2  0  0  0  0
 43 84  1  0  0  0  0
 44 85  1  0  0  0  0
 45 46  2  0  0  0  0
 45 50  1  0  0  0  0
 46 47  1  0  0  0  0
 46 86  1  0  0  0  0
 47 48  2  0  0  0  0
 47 87  1  0  0  0  0
 48 49  1  0  0  0  0
 48 88  1  0  0  0  0
 49 50  2  0  0  0  0
 49 89  1  0  0  0  0
 50 90  1  0  0  0  0
M  END
$$$$
