Title Card Required
 OpenBabel03192317553D

 78 84  0  0  1  0  0  0  0  0999 V2000
   -0.6709    0.4405    1.1382 O   0  0  0  0  0  0  0  0  0  0  0  0
   -1.7075    0.4249   -0.1899 P   0  0  0  0  0  0  0  0  0  0  0  0
   -0.5956   -0.0776   -1.3568 O   0  0  0  0  0  0  0  0  0  0  0  0
    0.6557   -0.5975   -1.2191 C   0  0  0  0  0  0  0  0  0  0  0  0
    1.6246    0.0334   -0.4297 C   0  0  0  0  0  0  0  0  0  0  0  0
    1.3372    1.3471    0.2100 C   0  0  0  0  0  0  0  0  0  0  0  0
    0.2441    1.4712    1.0701 C   0  0  0  0  0  0  0  0  0  0  0  0
    0.9728   -1.7492   -1.9444 C   0  0  0  0  0  0  0  0  0  0  0  0
    2.2463   -2.2803   -1.8494 C   0  0  0  0  0  0  0  0  0  0  0  0
    3.1993   -1.7435   -0.9720 C   0  0  0  0  0  0  0  0  0  0  0  0
    4.5226   -2.4620   -0.8089 C   0  0  0  0  0  0  0  0  0  0  0  0
    5.5477   -1.6547   -0.0226 C   0  0  0  0  0  0  0  0  0  0  0  0
    4.8921   -1.1066    1.2390 C   0  0  0  0  0  0  0  0  0  0  0  0
    3.8015   -0.1038    0.8699 C   0  0  0  0  0  0  0  0  0  0  0  0
    2.8750   -0.6015   -0.2285 C   0  0  0  0  0  0  0  0  0  0  0  0
    0.0203    2.6380    1.7989 C   0  0  0  0  0  0  0  0  0  0  0  0
    0.8851    3.7075    1.6270 C   0  0  0  0  0  0  0  0  0  0  0  0
    1.9184    3.6642    0.6803 C   0  0  0  0  0  0  0  0  0  0  0  0
    2.7395    4.9179    0.4486 C   0  0  0  0  0  0  0  0  0  0  0  0
    3.9416    4.6941   -0.4614 C   0  0  0  0  0  0  0  0  0  0  0  0
    3.5150    3.8696   -1.6701 C   0  0  0  0  0  0  0  0  0  0  0  0
    3.1055    2.4701   -1.2221 C   0  0  0  0  0  0  0  0  0  0  0  0
    2.1301    2.4891   -0.0574 C   0  0  0  0  0  0  0  0  0  0  0  0
   -2.6237   -0.9165    0.2733 N   0  0  0  0  0  0  0  0  0  0  0  0
   -2.2651   -2.0528    1.1516 C   0  0  2  0  0  0  0  0  0  0  0  0
   -2.3615   -1.6548    2.6254 C   0  0  0  0  0  0  0  0  0  0  0  0
   -0.9807   -2.8050    0.8239 C   0  0  0  0  0  0  0  0  0  0  0  0
   -1.0503   -3.9264   -0.0108 C   0  0  0  0  0  0  0  0  0  0  0  0
    0.0615   -4.7390   -0.2251 C   0  0  0  0  0  0  0  0  0  0  0  0
    1.2664   -4.4440    0.4082 C   0  0  0  0  0  0  0  0  0  0  0  0
    1.3539   -3.3220    1.2311 C   0  0  0  0  0  0  0  0  0  0  0  0
    0.2432   -2.5057    1.4338 C   0  0  0  0  0  0  0  0  0  0  0  0
   -3.9233   -1.0358   -0.4227 C   0  0  2  0  0  0  0  0  0  0  0  0
   -3.7482   -1.6475   -1.8101 C   0  0  0  0  0  0  0  0  0  0  0  0
   -4.7108    0.2721   -0.4087 C   0  0  0  0  0  0  0  0  0  0  0  0
   -4.9399    0.9031    0.8218 C   0  0  0  0  0  0  0  0  0  0  0  0
   -5.6755    2.0795    0.8967 C   0  0  0  0  0  0  0  0  0  0  0  0
   -6.1999    2.6518   -0.2651 C   0  0  0  0  0  0  0  0  0  0  0  0
   -5.9792    2.0340   -1.4913 C   0  0  0  0  0  0  0  0  0  0  0  0
   -5.2392    0.8508   -1.5627 C   0  0  0  0  0  0  0  0  0  0  0  0
    0.2046   -2.1964   -2.5755 H   0  0  0  0  0  0  0  0  0  0  0  0
    2.5017   -3.1732   -2.4262 H   0  0  0  0  0  0  0  0  0  0  0  0
    4.9116   -2.7305   -1.8036 H   0  0  0  0  0  0  0  0  0  0  0  0
    4.3403   -3.4191   -0.2863 H   0  0  0  0  0  0  0  0  0  0  0  0
    5.9102   -0.8124   -0.6368 H   0  0  0  0  0  0  0  0  0  0  0  0
    6.4214   -2.2779    0.2179 H   0  0  0  0  0  0  0  0  0  0  0  0
    4.4602   -1.9458    1.8111 H   0  0  0  0  0  0  0  0  0  0  0  0
    5.6294   -0.6240    1.8968 H   0  0  0  0  0  0  0  0  0  0  0  0
    3.1912    0.1461    1.7520 H   0  0  0  0  0  0  0  0  0  0  0  0
    4.2856    0.8409    0.5790 H   0  0  0  0  0  0  0  0  0  0  0  0
   -0.8370    2.6861    2.4710 H   0  0  0  0  0  0  0  0  0  0  0  0
    0.7299    4.6258    2.1985 H   0  0  0  0  0  0  0  0  0  0  0  0
    3.0554    5.3237    1.4225 H   0  0  0  0  0  0  0  0  0  0  0  0
    2.0840    5.6835   -0.0016 H   0  0  0  0  0  0  0  0  0  0  0  0
    4.7314    4.1505    0.0853 H   0  0  0  0  0  0  0  0  0  0  0  0
    4.3696    5.6606   -0.7644 H   0  0  0  0  0  0  0  0  0  0  0  0
    2.6665    4.3691   -2.1678 H   0  0  0  0  0  0  0  0  0  0  0  0
    4.3240    3.7980   -2.4112 H   0  0  0  0  0  0  0  0  0  0  0  0
    2.6421    1.9137   -2.0505 H   0  0  0  0  0  0  0  0  0  0  0  0
    4.0151    1.9056   -0.9653 H   0  0  0  0  0  0  0  0  0  0  0  0
   -3.0581   -2.7942    0.9718 H   0  0  0  0  0  0  0  0  0  0  0  0
   -2.1468   -2.5181    3.2713 H   0  0  0  0  0  0  0  0  0  0  0  0
   -1.6584   -0.8470    2.8591 H   0  0  0  0  0  0  0  0  0  0  0  0
   -3.3793   -1.3006    2.8460 H   0  0  0  0  0  0  0  0  0  0  0  0
   -2.0050   -4.1892   -0.4746 H   0  0  0  0  0  0  0  0  0  0  0  0
   -0.0198   -5.6147   -0.8713 H   0  0  0  0  0  0  0  0  0  0  0  0
    2.1373   -5.0852    0.2582 H   0  0  0  0  0  0  0  0  0  0  0  0
    2.2983   -3.0776    1.7212 H   0  0  0  0  0  0  0  0  0  0  0  0
    0.3233   -1.6304    2.0797 H   0  0  0  0  0  0  0  0  0  0  0  0
   -4.5197   -1.7344    0.1869 H   0  0  0  0  0  0  0  0  0  0  0  0
   -3.1846   -2.5872   -1.7266 H   0  0  0  0  0  0  0  0  0  0  0  0
   -4.7142   -1.8609   -2.2894 H   0  0  0  0  0  0  0  0  0  0  0  0
   -3.1673   -0.9729   -2.4576 H   0  0  0  0  0  0  0  0  0  0  0  0
   -4.5138    0.4655    1.7278 H   0  0  0  0  0  0  0  0  0  0  0  0
   -5.8413    2.5555    1.8646 H   0  0  0  0  0  0  0  0  0  0  0  0
   -6.7765    3.5764   -0.2113 H   0  0  0  0  0  0  0  0  0  0  0  0
   -6.3804    2.4739   -2.4058 H   0  0  0  0  0  0  0  0  0  0  0  0
   -5.0729    0.3884   -2.5360 H   0  0  0  0  0  0  0  0  0  0  0  0
  1  2  1  0  0  0  0
  1  7  1  0  0  0  0
  2  3  1  0  0  0  0
  2 24  1  0  0  0  0
  3  4  1  0  0  0  0
  4  5  2  0  0  0  0
  4  8  1  0  0  0  0
  5  6  1  0  0  0  0
  5 15  1  0  0  0  0
  6  7  2  0  0  0  0
  6 23  1  0  0  0  0
  7 16  1  0  0  0  0
  8  9  2  0  0  0  0
  8 41  1  0  0  0  0
  9 10  1  0  0  0  0
  9 42  1  0  0  0  0
 10 11  1  0  0  0  0
 10 15  2  0  0  0  0
 11 12  1  0  0  0  0
 11 43  1  0  0  0  0
 11 44  1  0  0  0  0
 12 13  1  0  0  0  0
 12 45  1  0  0  0  0
 12 46  1  0  0  0  0
 13 14  1  0  0  0  0
 13 47  1  0  0  0  0
 13 48  1  0  0  0  0
 14 15  1  0  0  0  0
 14 49  1  0  0  0  0
 14 50  1  0  0  0  0
 16 17  2  0  0  0  0
 16 51  1  0  0  0  0
 17 18  1  0  0  0  0
 17 52  1  0  0  0  0
 18 19  1  0  0  0  0
 18 23  2  0  0  0  0
 19 20  1  0  0  0  0
 19 53  1  0  0  0  0
 19 54  1  0  0  0  0
 20 21  1  0  0  0  0
 20 55  1  0  0  0  0
 20 56  1  0  0  0  0
 21 22  1  0  0  0  0
 21 57  1  0  0  0  0
 21 58  1  0  0  0  0
 22 23  1  0  0  0  0
 22 59  1  0  0  0  0
 22 60  1  0  0  0  0
 24 25  1  0  0  0  0
 24 33  1  0  0  0  0
 25 26  1  0  0  0  0
 25 27  1  0  0  0  0
 25 61  1  6  0  0  0
 26 62  1  0  0  0  0
 26 63  1  0  0  0  0
 26 64  1  0  0  0  0
 27 28  2  0  0  0  0
 27 32  1  0  0  0  0
 28 29  1  0  0  0  0
 28 65  1  0  0  0  0
 29 30  2  0  0  0  0
 29 66  1  0  0  0  0
 30 31  1  0  0  0  0
 30 67  1  0  0  0  0
 31 32  2  0  0  0  0
 31 68  1  0  0  0  0
 32 69  1  0  0  0  0
 33 34  1  0  0  0  0
 33 35  1  0  0  0  0
 33 70  1  1  0  0  0
 34 71  1  0  0  0  0
 34 72  1  0  0  0  0
 34 73  1  0  0  0  0
 35 36  2  0  0  0  0
 35 40  1  0  0  0  0
 36 37  1  0  0  0  0
 36 74  1  0  0  0  0
 37 38  2  0  0  0  0
 37 75  1  0  0  0  0
 38 39  1  0  0  0  0
 38 76  1  0  0  0  0
 39 40  2  0  0  0  0
 39 77  1  0  0  0  0
 40 78  1  0  0  0  0
M  END
$$$$
