Title Card Required
 OpenBabel03192317543D

112121  0  0  1  0  0  0  0  0999 V2000
    1.0324   -0.8870    1.2615 C   0  0  0  0  0  0  0  0  0  0  0  0
    0.4496   -0.6055    0.1421 N   0  0  0  0  0  0  0  0  0  0  0  0
   -0.6313    0.2019    0.1121 N   0  0  0  0  0  0  0  0  0  0  0  0
   -1.1189    0.6862    1.2071 C   0  0  0  0  0  0  0  0  0  0  0  0
   -0.5682    0.4167    2.5137 C   0  0  0  0  0  0  0  0  0  0  0  0
   -1.0921    0.9394    3.7126 C   0  0  0  0  0  0  0  0  0  0  0  0
   -0.4680    0.6395    4.9073 C   0  0  0  0  0  0  0  0  0  0  0  0
    0.6826   -0.1766    4.9339 C   0  0  0  0  0  0  0  0  0  0  0  0
    1.2053   -0.6962    3.7663 C   0  0  0  0  0  0  0  0  0  0  0  0
    0.5757   -0.4013    2.5411 C   0  0  0  0  0  0  0  0  0  0  0  0
   -2.1789    1.5056    1.1767 O   0  0  0  0  0  0  0  0  0  0  0  0
   -2.7259    1.9162   -0.0841 C   0  0  2  0  0  0  0  0  0  0  0  0
   -4.3784   -1.4464   -2.3119 N   0  0  0  0  0  0  0  0  0  0  0  0
   -3.6332   -0.5385   -2.8822 C   0  0  0  0  0  0  0  0  0  0  0  0
   -3.0780    0.5754   -2.2017 C   0  0  0  0  0  0  0  0  0  0  0  0
   -3.3122    0.7468   -0.8603 C   0  0  0  0  0  0  0  0  0  0  0  0
   -4.1722   -0.1992   -0.2072 C   0  0  0  0  0  0  0  0  0  0  0  0
   -4.5746   -0.1029    1.1476 C   0  0  0  0  0  0  0  0  0  0  0  0
   -5.4115   -1.0465    1.7115 C   0  0  0  0  0  0  0  0  0  0  0  0
   -5.8737   -2.1455    0.9406 C   0  0  0  0  0  0  0  0  0  0  0  0
   -5.5022   -2.2509   -0.3775 C   0  0  0  0  0  0  0  0  0  0  0  0
   -4.6623   -1.2878   -0.9914 C   0  0  0  0  0  0  0  0  0  0  0  0
   -5.7513   -0.8580    3.0083 O   0  0  0  0  0  0  0  0  0  0  0  0
   -6.5998   -1.7860    3.6290 C   0  0  0  0  0  0  0  0  0  0  0  0
   -2.3459    3.5812   -1.8910 N   0  0  2  0  0  0  0  0  0  0  0  0
   -1.7056    2.7745   -0.8470 C   0  0  1  0  0  0  0  0  0  0  0  0
   -0.8584    3.6729    0.0875 C   0  0  0  0  0  0  0  0  0  0  0  0
   -0.6174    4.9983   -0.6489 C   0  0  1  0  0  0  0  0  0  0  0  0
   -0.1344    4.7330   -2.0874 C   0  0  2  0  0  0  0  0  0  0  0  0
   -1.3028    4.0086   -2.8257 C   0  0  0  0  0  0  0  0  0  0  0  0
   -1.9569    5.7418   -0.7206 C   0  0  0  0  0  0  0  0  0  0  0  0
   -2.9972    4.7665   -1.3335 C   0  0  0  0  0  0  0  0  0  0  0  0
    1.1883    3.9636   -2.1472 C   0  0  0  0  0  0  0  0  0  0  0  0
    1.8239    3.9670   -3.5335 C   0  0  0  0  0  0  0  0  0  0  0  0
    2.1270   -1.6630    1.2824 O   0  0  0  0  0  0  0  0  0  0  0  0
    2.7679   -2.0123    0.0454 C   0  0  2  0  0  0  0  0  0  0  0  0
    3.9117    1.5881   -2.1259 N   0  0  0  0  0  0  0  0  0  0  0  0
    3.3097    0.5902   -2.7154 C   0  0  0  0  0  0  0  0  0  0  0  0
    2.9343   -0.6099   -2.0589 C   0  0  0  0  0  0  0  0  0  0  0  0
    3.1959   -0.7696   -0.7214 C   0  0  0  0  0  0  0  0  0  0  0  0
    3.8999    0.2850   -0.0486 C   0  0  0  0  0  0  0  0  0  0  0  0
    4.2975    0.2281    1.3098 C   0  0  0  0  0  0  0  0  0  0  0  0
    4.9672    1.2815    1.9012 C   0  0  0  0  0  0  0  0  0  0  0  0
    5.2662    2.4499    1.1515 C   0  0  0  0  0  0  0  0  0  0  0  0
    4.8978    2.5202   -0.1699 C   0  0  0  0  0  0  0  0  0  0  0  0
    4.2191    1.4514   -0.8085 C   0  0  0  0  0  0  0  0  0  0  0  0
    5.3068    1.1307    3.2028 O   0  0  0  0  0  0  0  0  0  0  0  0
    6.0133    2.1597    3.8422 C   0  0  0  0  0  0  0  0  0  0  0  0
    2.6602   -3.6957   -1.7826 N   0  0  2  0  0  0  0  0  0  0  0  0
    1.9018   -3.0069   -0.7342 C   0  0  1  0  0  0  0  0  0  0  0  0
    1.1999   -4.0302    0.1846 C   0  0  0  0  0  0  0  0  0  0  0  0
    1.1073   -5.3485   -0.5990 C   0  0  1  0  0  0  0  0  0  0  0  0
    0.6357   -5.1386   -2.0546 C   0  0  2  0  0  0  0  0  0  0  0  0
    1.6977   -4.2303   -2.7479 C   0  0  0  0  0  0  0  0  0  0  0  0
    2.5326   -5.9178   -0.6646 C   0  0  0  0  0  0  0  0  0  0  0  0
    3.4488   -4.8019   -1.2393 C   0  0  0  0  0  0  0  0  0  0  0  0
   -0.8275   -4.6935   -2.2356 C   0  0  0  0  0  0  0  0  0  0  0  0
   -1.2272   -3.2453   -1.9439 C   0  0  0  0  0  0  0  0  0  0  0  0
    0.1305    5.6023   -0.1136 H   0  0  0  0  0  0  0  0  0  0  0  0
    0.4326   -6.0547   -0.0923 H   0  0  0  0  0  0  0  0  0  0  0  0
   -1.9791    1.5715    3.6738 H   0  0  0  0  0  0  0  0  0  0  0  0
   -0.8652    1.0385    5.8418 H   0  0  0  0  0  0  0  0  0  0  0  0
    1.1634   -0.3964    5.8881 H   0  0  0  0  0  0  0  0  0  0  0  0
    2.0927   -1.3288    3.7680 H   0  0  0  0  0  0  0  0  0  0  0  0
   -3.5650    2.5596    0.2262 H   0  0  0  0  0  0  0  0  0  0  0  0
   -3.4219   -0.6691   -3.9491 H   0  0  0  0  0  0  0  0  0  0  0  0
   -2.4721    1.2879   -2.7572 H   0  0  0  0  0  0  0  0  0  0  0  0
   -4.2351    0.7128    1.7823 H   0  0  0  0  0  0  0  0  0  0  0  0
   -6.5258   -2.9001    1.3781 H   0  0  0  0  0  0  0  0  0  0  0  0
   -5.8503   -3.0741   -1.0021 H   0  0  0  0  0  0  0  0  0  0  0  0
   -7.5777   -1.8472    3.1229 H   0  0  0  0  0  0  0  0  0  0  0  0
   -6.1503   -2.7926    3.6605 H   0  0  0  0  0  0  0  0  0  0  0  0
   -6.7523   -1.4330    4.6551 H   0  0  0  0  0  0  0  0  0  0  0  0
   -1.0297    2.0806   -1.3638 H   0  0  0  0  0  0  0  0  0  0  0  0
   -1.3872    3.8705    1.0340 H   0  0  0  0  0  0  0  0  0  0  0  0
    0.0862    3.1723    0.3484 H   0  0  0  0  0  0  0  0  0  0  0  0
    0.0342    5.7151   -2.5625 H   0  0  0  0  0  0  0  0  0  0  0  0
   -1.7698    4.6613   -3.5784 H   0  0  0  0  0  0  0  0  0  0  0  0
   -0.9272    3.1188   -3.3585 H   0  0  0  0  0  0  0  0  0  0  0  0
   -1.8496    6.6465   -1.3389 H   0  0  0  0  0  0  0  0  0  0  0  0
   -2.2674    6.0694    0.2831 H   0  0  0  0  0  0  0  0  0  0  0  0
   -3.5736    5.2487   -2.1364 H   0  0  0  0  0  0  0  0  0  0  0  0
   -3.7289    4.4450   -0.5788 H   0  0  0  0  0  0  0  0  0  0  0  0
    1.8947    4.4064   -1.4243 H   0  0  0  0  0  0  0  0  0  0  0  0
    1.0357    2.9203   -1.8171 H   0  0  0  0  0  0  0  0  0  0  0  0
    2.0157    4.9968   -3.8731 H   0  0  0  0  0  0  0  0  0  0  0  0
    2.7784    3.4234   -3.5177 H   0  0  0  0  0  0  0  0  0  0  0  0
    1.1684    3.4906   -4.2795 H   0  0  0  0  0  0  0  0  0  0  0  0
    3.6799   -2.5276    0.3887 H   0  0  0  0  0  0  0  0  0  0  0  0
    3.0741    0.7125   -3.7784 H   0  0  0  0  0  0  0  0  0  0  0  0
    2.4338   -1.3929   -2.6248 H   0  0  0  0  0  0  0  0  0  0  0  0
    4.0824   -0.6427    1.9255 H   0  0  0  0  0  0  0  0  0  0  0  0
    5.7886    3.2884    1.6097 H   0  0  0  0  0  0  0  0  0  0  0  0
    5.1238    3.3987   -0.7753 H   0  0  0  0  0  0  0  0  0  0  0  0
    6.9843    2.3506    3.3554 H   0  0  0  0  0  0  0  0  0  0  0  0
    5.4340    3.0977    3.8672 H   0  0  0  0  0  0  0  0  0  0  0  0
    6.1911    1.8252    4.8704 H   0  0  0  0  0  0  0  0  0  0  0  0
    1.1294   -2.4182   -1.2408 H   0  0  0  0  0  0  0  0  0  0  0  0
    1.7854   -4.1976    1.1041 H   0  0  0  0  0  0  0  0  0  0  0  0
    0.2170   -3.6586    0.5049 H   0  0  0  0  0  0  0  0  0  0  0  0
    0.6899   -6.1362   -2.5209 H   0  0  0  0  0  0  0  0  0  0  0  0
    2.2596   -4.7918   -3.5093 H   0  0  0  0  0  0  0  0  0  0  0  0
    1.2147   -3.3871   -3.2672 H   0  0  0  0  0  0  0  0  0  0  0  0
    2.8682   -6.2247    0.3375 H   0  0  0  0  0  0  0  0  0  0  0  0
    2.5516   -6.8148   -1.3028 H   0  0  0  0  0  0  0  0  0  0  0  0
    4.1219   -4.4079   -0.4640 H   0  0  0  0  0  0  0  0  0  0  0  0
    4.0954   -5.1874   -2.0410 H   0  0  0  0  0  0  0  0  0  0  0  0
   -1.1009   -4.9062   -3.2831 H   0  0  0  0  0  0  0  0  0  0  0  0
   -1.4559   -5.3673   -1.6286 H   0  0  0  0  0  0  0  0  0  0  0  0
   -0.6807   -2.5253   -2.5722 H   0  0  0  0  0  0  0  0  0  0  0  0
   -2.2956   -3.1068   -2.1629 H   0  0  0  0  0  0  0  0  0  0  0  0
   -1.0714   -2.9456   -0.8987 H   0  0  0  0  0  0  0  0  0  0  0  0
  1  2  2  0  0  0  0
  1 10  1  0  0  0  0
  1 35  1  0  0  0  0
  2  3  1  0  0  0  0
  3  4  2  0  0  0  0
  4  5  1  0  0  0  0
  4 11  1  0  0  0  0
  5  6  2  0  0  0  0
  5 10  1  0  0  0  0
  6  7  1  0  0  0  0
  6 61  1  0  0  0  0
  7  8  2  0  0  0  0
  7 62  1  0  0  0  0
  8  9  1  0  0  0  0
  8 63  1  0  0  0  0
  9 10  2  0  0  0  0
  9 64  1  0  0  0  0
 11 12  1  0  0  0  0
 12 16  1  0  0  0  0
 12 26  1  0  0  0  0
 12 65  1  1  0  0  0
 13 14  2  0  0  0  0
 13 22  1  0  0  0  0
 14 15  1  0  0  0  0
 14 66  1  0  0  0  0
 15 16  2  0  0  0  0
 15 67  1  0  0  0  0
 16 17  1  0  0  0  0
 17 18  2  0  0  0  0
 17 22  1  0  0  0  0
 18 19  1  0  0  0  0
 18 68  1  0  0  0  0
 19 20  2  0  0  0  0
 19 23  1  0  0  0  0
 20 21  1  0  0  0  0
 20 69  1  0  0  0  0
 21 22  2  0  0  0  0
 21 70  1  0  0  0  0
 23 24  1  0  0  0  0
 24 71  1  0  0  0  0
 24 72  1  0  0  0  0
 24 73  1  0  0  0  0
 25 26  1  0  0  0  0
 25 30  1  6  0  0  0
 25 32  1  0  0  0  0
 26 27  1  0  0  0  0
 26 74  1  6  0  0  0
 27 28  1  0  0  0  0
 27 75  1  0  0  0  0
 27 76  1  0  0  0  0
 28 29  1  0  0  0  0
 28 31  1  0  0  0  0
 28 59  1  1  0  0  0
 29 30  1  0  0  0  0
 29 33  1  0  0  0  0
 29 77  1  6  0  0  0
 30 78  1  0  0  0  0
 30 79  1  0  0  0  0
 31 32  1  0  0  0  0
 31 80  1  0  0  0  0
 31 81  1  0  0  0  0
 32 82  1  0  0  0  0
 32 83  1  0  0  0  0
 33 34  1  0  0  0  0
 33 84  1  0  0  0  0
 33 85  1  0  0  0  0
 34 86  1  0  0  0  0
 34 87  1  0  0  0  0
 34 88  1  0  0  0  0
 35 36  1  0  0  0  0
 36 40  1  0  0  0  0
 36 50  1  0  0  0  0
 36 89  1  1  0  0  0
 37 38  2  0  0  0  0
 37 46  1  0  0  0  0
 38 39  1  0  0  0  0
 38 90  1  0  0  0  0
 39 40  2  0  0  0  0
 39 91  1  0  0  0  0
 40 41  1  0  0  0  0
 41 42  2  0  0  0  0
 41 46  1  0  0  0  0
 42 43  1  0  0  0  0
 42 92  1  0  0  0  0
 43 44  2  0  0  0  0
 43 47  1  0  0  0  0
 44 45  1  0  0  0  0
 44 93  1  0  0  0  0
 45 46  2  0  0  0  0
 45 94  1  0  0  0  0
 47 48  1  0  0  0  0
 48 95  1  0  0  0  0
 48 96  1  0  0  0  0
 48 97  1  0  0  0  0
 49 50  1  0  0  0  0
 49 54  1  6  0  0  0
 49 56  1  0  0  0  0
 50 51  1  0  0  0  0
 50 98  1  6  0  0  0
 51 52  1  0  0  0  0
 51 99  1  0  0  0  0
 51100  1  0  0  0  0
 52 53  1  0  0  0  0
 52 55  1  0  0  0  0
 52 60  1  1  0  0  0
 53 54  1  0  0  0  0
 53 57  1  0  0  0  0
 53101  1  6  0  0  0
 54102  1  0  0  0  0
 54103  1  0  0  0  0
 55 56  1  0  0  0  0
 55104  1  0  0  0  0
 55105  1  0  0  0  0
 56106  1  0  0  0  0
 56107  1  0  0  0  0
 57 58  1  0  0  0  0
 57108  1  0  0  0  0
 57109  1  0  0  0  0
 58110  1  0  0  0  0
 58111  1  0  0  0  0
 58112  1  0  0  0  0
M  END
$$$$
