Title Card Required
 OpenBabel03192317533D

 42 44  0  0  1  0  0  0  0  0999 V2000
   -1.4547   -0.6301    1.4894 C   0  0  1  0  0  0  0  0  0  0  0  0
   -0.0971   -1.1863    1.0500 C   0  0  0  0  0  0  0  0  0  0  0  0
   -2.5245   -0.7352    0.4104 C   0  0  0  0  0  0  0  0  0  0  0  0
   -3.2821    0.3830    0.0516 C   0  0  0  0  0  0  0  0  0  0  0  0
   -4.2923    0.2862   -0.9070 C   0  0  0  0  0  0  0  0  0  0  0  0
   -4.5575   -0.9362   -1.5196 C   0  0  0  0  0  0  0  0  0  0  0  0
   -3.8077   -2.0606   -1.1689 C   0  0  0  0  0  0  0  0  0  0  0  0
   -2.8012   -1.9584   -0.2130 C   0  0  0  0  0  0  0  0  0  0  0  0
    0.4978   -0.4947   -0.5819 P   0  0  0  0  0  0  0  0  0  0  0  0
    0.4475    1.3073   -0.1680 C   0  0  0  0  0  0  0  0  0  0  0  0
    1.1981    1.8711    0.8736 C   0  0  0  0  0  0  0  0  0  0  0  0
    1.0773    3.2244    1.1779 C   0  0  0  0  0  0  0  0  0  0  0  0
    0.2062    4.0326    0.4430 C   0  0  0  0  0  0  0  0  0  0  0  0
   -0.5392    3.4839   -0.5976 C   0  0  0  0  0  0  0  0  0  0  0  0
   -0.4168    2.1261   -0.9020 C   0  0  0  0  0  0  0  0  0  0  0  0
    2.3088   -0.8113   -0.4326 C   0  0  0  0  0  0  0  0  0  0  0  0
    2.8333   -1.8760    0.3096 C   0  0  0  0  0  0  0  0  0  0  0  0
    4.2058   -2.1328    0.3157 C   0  0  0  0  0  0  0  0  0  0  0  0
    5.0746   -1.3283   -0.4167 C   0  0  0  0  0  0  0  0  0  0  0  0
    4.5624   -0.2655   -1.1628 C   0  0  0  0  0  0  0  0  0  0  0  0
    3.1936   -0.0147   -1.1754 C   0  0  0  0  0  0  0  0  0  0  0  0
   -1.8267   -1.2712    2.7490 N   0  0  0  0  0  0  0  0  0  0  0  0
   -1.3157    0.4424    1.7029 H   0  0  0  0  0  0  0  0  0  0  0  0
    0.6305   -0.9925    1.8528 H   0  0  0  0  0  0  0  0  0  0  0  0
   -0.1693   -2.2818    0.9339 H   0  0  0  0  0  0  0  0  0  0  0  0
   -3.0694    1.3450    0.5257 H   0  0  0  0  0  0  0  0  0  0  0  0
   -4.8731    1.1704   -1.1755 H   0  0  0  0  0  0  0  0  0  0  0  0
   -5.3446   -1.0161   -2.2709 H   0  0  0  0  0  0  0  0  0  0  0  0
   -4.0055   -3.0204   -1.6491 H   0  0  0  0  0  0  0  0  0  0  0  0
   -2.2157   -2.8452    0.0454 H   0  0  0  0  0  0  0  0  0  0  0  0
    1.8863    1.2435    1.4466 H   0  0  0  0  0  0  0  0  0  0  0  0
    1.6659    3.6538    1.9904 H   0  0  0  0  0  0  0  0  0  0  0  0
    0.1147    5.0936    0.6812 H   0  0  0  0  0  0  0  0  0  0  0  0
   -1.2152    4.1129   -1.1794 H   0  0  0  0  0  0  0  0  0  0  0  0
   -1.0039    1.6897   -1.7139 H   0  0  0  0  0  0  0  0  0  0  0  0
    2.1735   -2.5175    0.8965 H   0  0  0  0  0  0  0  0  0  0  0  0
    4.5951   -2.9661    0.9032 H   0  0  0  0  0  0  0  0  0  0  0  0
    6.1473   -1.5271   -0.4083 H   0  0  0  0  0  0  0  0  0  0  0  0
    5.2336    0.3711   -1.7419 H   0  0  0  0  0  0  0  0  0  0  0  0
    2.8031    0.8193   -1.7646 H   0  0  0  0  0  0  0  0  0  0  0  0
   -2.7011   -0.8715    3.0875 H   0  0  0  0  0  0  0  0  0  0  0  0
   -2.0235   -2.2579    2.5784 H   0  0  0  0  0  0  0  0  0  0  0  0
  1  2  1  0  0  0  0
  1  3  1  0  0  0  0
  1 22  1  0  0  0  0
  1 23  1  1  0  0  0
  2  9  1  0  0  0  0
  2 24  1  0  0  0  0
  2 25  1  0  0  0  0
  3  4  2  0  0  0  0
  3  8  1  0  0  0  0
  4  5  1  0  0  0  0
  4 26  1  0  0  0  0
  5  6  2  0  0  0  0
  5 27  1  0  0  0  0
  6  7  1  0  0  0  0
  6 28  1  0  0  0  0
  7  8  2  0  0  0  0
  7 29  1  0  0  0  0
  8 30  1  0  0  0  0
  9 10  1  0  0  0  0
  9 16  1  0  0  0  0
 10 11  2  0  0  0  0
 10 15  1  0  0  0  0
 11 12  1  0  0  0  0
 11 31  1  0  0  0  0
 12 13  2  0  0  0  0
 12 32  1  0  0  0  0
 13 14  1  0  0  0  0
 13 33  1  0  0  0  0
 14 15  2  0  0  0  0
 14 34  1  0  0  0  0
 15 35  1  0  0  0  0
 16 17  2  0  0  0  0
 16 21  1  0  0  0  0
 17 18  1  0  0  0  0
 17 36  1  0  0  0  0
 18 19  2  0  0  0  0
 18 37  1  0  0  0  0
 19 20  1  0  0  0  0
 19 38  1  0  0  0  0
 20 21  2  0  0  0  0
 20 39  1  0  0  0  0
 21 40  1  0  0  0  0
 22 41  1  0  0  0  0
 22 42  1  0  0  0  0
M  END
$$$$
