Title Card Required
 OpenBabel03192317523D

 53 56  0  0  1  0  0  0  0  0999 V2000
    3.3061    2.8526   -0.8730 C   0  0  0  0  0  0  0  0  0  0  0  0
    3.2748    1.3146   -1.0221 C   0  0  2  0  0  0  0  0  0  0  0  0
    1.8955    0.9697   -0.6761 N   0  0  0  0  0  0  0  0  0  0  0  0
    1.3852    2.0011   -0.1495 C   0  0  0  0  0  0  0  0  0  0  0  0
    2.1268    3.1347   -0.1141 O   0  0  0  0  0  0  0  0  0  0  0  0
    0.0076    2.1201    0.4528 C   0  0  0  0  0  0  0  0  0  0  0  0
   -0.5773    0.7338    0.5075 C   0  0  0  0  0  0  0  0  0  0  0  0
   -1.5703    0.3128   -0.1543 N   0  0  0  0  0  0  0  0  0  0  0  0
   -1.8003   -1.0713    0.2674 C   0  0  1  0  0  0  0  0  0  0  0  0
   -0.5360   -1.4036    1.0908 C   0  0  0  0  0  0  0  0  0  0  0  0
    0.0214   -0.1193    1.3738 O   0  0  0  0  0  0  0  0  0  0  0  0
    0.1238    2.6934    1.8750 C   0  0  0  0  0  0  0  0  0  0  0  0
   -0.8483    3.0262   -0.4383 C   0  0  0  0  0  0  0  0  0  0  0  0
    4.2504    0.6153   -0.0622 C   0  0  0  0  0  0  0  0  0  0  0  0
    4.1550   -0.8888   -0.0902 C   0  0  0  0  0  0  0  0  0  0  0  0
    5.0613   -1.6484   -0.8351 C   0  0  0  0  0  0  0  0  0  0  0  0
    4.9644   -3.0396   -0.8786 C   0  0  0  0  0  0  0  0  0  0  0  0
    3.9567   -3.6892   -0.1697 C   0  0  0  0  0  0  0  0  0  0  0  0
    3.0457   -2.9396    0.5765 C   0  0  0  0  0  0  0  0  0  0  0  0
    3.1398   -1.5504    0.6135 C   0  0  0  0  0  0  0  0  0  0  0  0
   -3.0983   -1.1885    1.0807 C   0  0  0  0  0  0  0  0  0  0  0  0
   -4.3433   -0.9061    0.2777 C   0  0  0  0  0  0  0  0  0  0  0  0
   -5.1571   -1.9546   -0.1630 C   0  0  0  0  0  0  0  0  0  0  0  0
   -6.2971   -1.7060   -0.9273 C   0  0  0  0  0  0  0  0  0  0  0  0
   -6.6388   -0.3979   -1.2629 C   0  0  0  0  0  0  0  0  0  0  0  0
   -5.8333    0.6563   -0.8305 C   0  0  0  0  0  0  0  0  0  0  0  0
   -4.6959    0.4045   -0.0679 C   0  0  0  0  0  0  0  0  0  0  0  0
    4.1803    3.2242   -0.3218 H   0  0  0  0  0  0  0  0  0  0  0  0
    3.2340    3.3746   -1.8389 H   0  0  0  0  0  0  0  0  0  0  0  0
    3.4922    0.9956   -2.0522 H   0  0  0  0  0  0  0  0  0  0  0  0
   -1.8810   -1.7139   -0.6216 H   0  0  0  0  0  0  0  0  0  0  0  0
   -0.7433   -1.9180    2.0389 H   0  0  0  0  0  0  0  0  0  0  0  0
    0.2017   -1.9754    0.5068 H   0  0  0  0  0  0  0  0  0  0  0  0
    0.5790    3.6912    1.8336 H   0  0  0  0  0  0  0  0  0  0  0  0
   -0.8768    2.7756    2.3226 H   0  0  0  0  0  0  0  0  0  0  0  0
    0.7400    2.0433    2.5099 H   0  0  0  0  0  0  0  0  0  0  0  0
   -0.3738    4.0128   -0.5230 H   0  0  0  0  0  0  0  0  0  0  0  0
   -0.9641    2.5836   -1.4356 H   0  0  0  0  0  0  0  0  0  0  0  0
   -1.8492    3.1409   -0.0007 H   0  0  0  0  0  0  0  0  0  0  0  0
    5.2742    0.9291   -0.3196 H   0  0  0  0  0  0  0  0  0  0  0  0
    4.0398    0.9866    0.9547 H   0  0  0  0  0  0  0  0  0  0  0  0
    5.8602   -1.1436   -1.3845 H   0  0  0  0  0  0  0  0  0  0  0  0
    5.6827   -3.6166   -1.4632 H   0  0  0  0  0  0  0  0  0  0  0  0
    3.8817   -4.7775   -0.1950 H   0  0  0  0  0  0  0  0  0  0  0  0
    2.2567   -3.4451    1.1374 H   0  0  0  0  0  0  0  0  0  0  0  0
    2.4136   -0.9597    1.1775 H   0  0  0  0  0  0  0  0  0  0  0  0
   -3.1545   -2.2082    1.4924 H   0  0  0  0  0  0  0  0  0  0  0  0
   -3.0260   -0.4958    1.9360 H   0  0  0  0  0  0  0  0  0  0  0  0
   -4.8969   -2.9828    0.1014 H   0  0  0  0  0  0  0  0  0  0  0  0
   -6.9213   -2.5381   -1.2573 H   0  0  0  0  0  0  0  0  0  0  0  0
   -7.5311   -0.1978   -1.8582 H   0  0  0  0  0  0  0  0  0  0  0  0
   -6.0936    1.6839   -1.0905 H   0  0  0  0  0  0  0  0  0  0  0  0
   -4.0577    1.2276    0.2564 H   0  0  0  0  0  0  0  0  0  0  0  0
  1  2  1  0  0  0  0
  1  5  1  0  0  0  0
  1 28  1  0  0  0  0
  1 29  1  0  0  0  0
  2  3  1  0  0  0  0
  2 14  1  0  0  0  0
  2 30  1  6  0  0  0
  3  4  2  0  0  0  0
  4  5  1  0  0  0  0
  4  6  1  0  0  0  0
  6  7  1  0  0  0  0
  6 12  1  0  0  0  0
  6 13  1  0  0  0  0
  7  8  2  0  0  0  0
  7 11  1  0  0  0  0
  8  9  1  0  0  0  0
  9 10  1  0  0  0  0
  9 21  1  0  0  0  0
  9 31  1  6  0  0  0
 10 11  1  0  0  0  0
 10 32  1  0  0  0  0
 10 33  1  0  0  0  0
 12 34  1  0  0  0  0
 12 35  1  0  0  0  0
 12 36  1  0  0  0  0
 13 37  1  0  0  0  0
 13 38  1  0  0  0  0
 13 39  1  0  0  0  0
 14 15  1  0  0  0  0
 14 40  1  0  0  0  0
 14 41  1  0  0  0  0
 15 16  2  0  0  0  0
 15 20  1  0  0  0  0
 16 17  1  0  0  0  0
 16 42  1  0  0  0  0
 17 18  2  0  0  0  0
 17 43  1  0  0  0  0
 18 19  1  0  0  0  0
 18 44  1  0  0  0  0
 19 20  2  0  0  0  0
 19 45  1  0  0  0  0
 20 46  1  0  0  0  0
 21 22  1  0  0  0  0
 21 47  1  0  0  0  0
 21 48  1  0  0  0  0
 22 23  2  0  0  0  0
 22 27  1  0  0  0  0
 23 24  1  0  0  0  0
 23 49  1  0  0  0  0
 24 25  2  0  0  0  0
 24 50  1  0  0  0  0
 25 26  1  0  0  0  0
 25 51  1  0  0  0  0
 26 27  2  0  0  0  0
 26 52  1  0  0  0  0
 27 53  1  0  0  0  0
M  END
$$$$
