Title Card Required
 OpenBabel03192317513D

 31 32  0  0  1  0  0  0  0  0999 V2000
    1.8971    1.9180    0.1644 O   0  0  0  0  0  0  0  0  0  0  0  0
    1.1226    0.8206    0.1781 C   0  0  0  0  0  0  0  0  0  0  0  0
    1.6711   -0.3129    0.3343 N   0  0  0  0  0  0  0  0  0  0  0  0
    3.1060   -0.0704    0.4849 C   0  0  2  0  0  0  0  0  0  0  0  0
    3.2461    1.4474    0.2099 C   0  0  0  0  0  0  0  0  0  0  0  0
   -0.3406    1.0247    0.0250 C   0  0  0  0  0  0  0  0  0  0  0  0
   -1.1792   -0.0961    0.0942 C   0  0  0  0  0  0  0  0  0  0  0  0
   -2.5418    0.1116   -0.0521 C   0  0  0  0  0  0  0  0  0  0  0  0
   -3.0205    1.4053   -0.2615 C   0  0  0  0  0  0  0  0  0  0  0  0
   -2.0939    2.4437   -0.3105 C   0  0  0  0  0  0  0  0  0  0  0  0
   -0.7832    2.2616   -0.1703 N   0  0  0  0  0  0  0  0  0  0  0  0
   -3.5216   -1.0315    0.0332 C   0  0  0  0  0  0  0  0  0  0  0  0
   -2.9097   -2.2116    0.0534 F   0  0  0  0  0  0  0  0  0  0  0  0
   -4.2661   -0.9409    1.1363 F   0  0  0  0  0  0  0  0  0  0  0  0
   -4.3583   -1.0213   -1.0059 F   0  0  0  0  0  0  0  0  0  0  0  0
    3.9535   -0.9529   -0.4349 C   0  0  0  0  0  0  0  0  0  0  0  0
    5.4381   -0.6536   -0.2369 C   0  0  0  0  0  0  0  0  0  0  0  0
    3.6504   -2.4293   -0.2025 C   0  0  0  0  0  0  0  0  0  0  0  0
    3.3821   -0.3130    1.5282 H   0  0  0  0  0  0  0  0  0  0  0  0
    3.7876    1.9999    0.9876 H   0  0  0  0  0  0  0  0  0  0  0  0
    3.7164    1.6470   -0.7672 H   0  0  0  0  0  0  0  0  0  0  0  0
   -0.7485   -1.0840    0.2551 H   0  0  0  0  0  0  0  0  0  0  0  0
   -4.0869    1.5980   -0.3861 H   0  0  0  0  0  0  0  0  0  0  0  0
   -2.4285    3.4722   -0.4721 H   0  0  0  0  0  0  0  0  0  0  0  0
    3.6712   -0.6936   -1.4713 H   0  0  0  0  0  0  0  0  0  0  0  0
    5.7394   -0.8790    0.7989 H   0  0  0  0  0  0  0  0  0  0  0  0
    6.0538   -1.2716   -0.9055 H   0  0  0  0  0  0  0  0  0  0  0  0
    5.6826    0.4002   -0.4392 H   0  0  0  0  0  0  0  0  0  0  0  0
    2.5833   -2.6361   -0.3512 H   0  0  0  0  0  0  0  0  0  0  0  0
    4.2357   -3.0608   -0.8863 H   0  0  0  0  0  0  0  0  0  0  0  0
    3.9116   -2.7166    0.8289 H   0  0  0  0  0  0  0  0  0  0  0  0
  1  2  1  0  0  0  0
  1  5  1  0  0  0  0
  2  3  2  0  0  0  0
  2  6  1  0  0  0  0
  3  4  1  0  0  0  0
  4  5  1  0  0  0  0
  4 16  1  0  0  0  0
  4 19  1  1  0  0  0
  5 20  1  0  0  0  0
  5 21  1  0  0  0  0
  6  7  2  0  0  0  0
  6 11  1  0  0  0  0
  7  8  1  0  0  0  0
  7 22  1  0  0  0  0
  8  9  2  0  0  0  0
  8 12  1  0  0  0  0
  9 10  1  0  0  0  0
  9 23  1  0  0  0  0
 10 11  2  0  0  0  0
 10 24  1  0  0  0  0
 12 13  1  0  0  0  0
 12 14  1  0  0  0  0
 12 15  1  0  0  0  0
 16 17  1  0  0  0  0
 16 18  1  0  0  0  0
 16 25  1  0  0  0  0
 17 26  1  0  0  0  0
 17 27  1  0  0  0  0
 17 28  1  0  0  0  0
 18 29  1  0  0  0  0
 18 30  1  0  0  0  0
 18 31  1  0  0  0  0
M  END
$$$$
