Title Card Required
 OpenBabel03192317513D

 72 73  0  0  1  0  0  0  0  0999 V2000
   -0.1744   -1.0893   -0.7851 N   0  0  0  0  0  0  0  0  0  0  0  0
   -0.7209   -2.2914   -1.1598 C   0  0  0  0  0  0  0  0  0  0  0  0
    0.1482   -3.6594   -1.5532 S   0  0  0  0  0  0  0  0  0  0  0  0
   -2.0746   -2.2916   -1.2208 N   0  0  0  0  0  0  0  0  0  0  0  0
   -2.9623   -1.1645   -0.9685 C   0  0  2  0  0  0  0  0  0  0  0  0
   -2.9721   -0.8308    0.5523 C   0  0  2  0  0  0  0  0  0  0  0  0
   -3.9781   -1.7119    1.3244 C   0  0  0  0  0  0  0  0  0  0  0  0
   -5.3413   -1.8939    0.6594 C   0  0  0  0  0  0  0  0  0  0  0  0
   -5.1610   -2.4558   -0.7470 C   0  0  0  0  0  0  0  0  0  0  0  0
   -4.3300   -1.4899   -1.5875 C   0  0  0  0  0  0  0  0  0  0  0  0
   -2.9977    0.6150    0.7999 N   0  0  0  0  0  0  0  0  0  0  0  0
   -2.8168    0.9692    2.2032 C   0  0  0  0  0  0  0  0  0  0  0  0
   -1.5429    0.4086    2.8352 C   0  0  0  0  0  0  0  0  0  0  0  0
   -0.2722    0.9189    2.1507 C   0  0  0  0  0  0  0  0  0  0  0  0
    0.1597    2.3040    2.6287 C   0  0  0  0  0  0  0  0  0  0  0  0
    1.3348    2.8569    1.8342 C   0  0  0  0  0  0  0  0  0  0  0  0
   -4.0687    1.3728    0.1701 C   0  0  0  0  0  0  0  0  0  0  0  0
   -3.8581    2.8899    0.2010 C   0  0  0  0  0  0  0  0  0  0  0  0
   -2.4685    3.3453   -0.2403 C   0  0  0  0  0  0  0  0  0  0  0  0
   -2.0534    2.8498   -1.6227 C   0  0  0  0  0  0  0  0  0  0  0  0
   -0.7715    3.5101   -2.1149 C   0  0  0  0  0  0  0  0  0  0  0  0
    1.1798   -0.7728   -0.5837 C   0  0  0  0  0  0  0  0  0  0  0  0
    1.6058    0.5168   -0.9286 C   0  0  0  0  0  0  0  0  0  0  0  0
    2.9142    0.9097   -0.6770 C   0  0  0  0  0  0  0  0  0  0  0  0
    3.8276    0.0329   -0.0935 C   0  0  0  0  0  0  0  0  0  0  0  0
    3.3949   -1.2444    0.2422 C   0  0  0  0  0  0  0  0  0  0  0  0
    2.0829   -1.6559    0.0126 C   0  0  0  0  0  0  0  0  0  0  0  0
    4.3442   -2.2308    0.8737 C   0  0  0  0  0  0  0  0  0  0  0  0
    5.4924   -1.6536    1.2298 F   0  0  0  0  0  0  0  0  0  0  0  0
    3.8109   -2.7804    1.9671 F   0  0  0  0  0  0  0  0  0  0  0  0
    4.6383   -3.2270    0.0396 F   0  0  0  0  0  0  0  0  0  0  0  0
    3.3902    2.2905   -1.0439 C   0  0  0  0  0  0  0  0  0  0  0  0
    2.3971    3.0603   -1.4963 F   0  0  0  0  0  0  0  0  0  0  0  0
    3.9328    2.9119    0.0066 F   0  0  0  0  0  0  0  0  0  0  0  0
    4.3255    2.2465   -1.9923 F   0  0  0  0  0  0  0  0  0  0  0  0
   -0.8043   -0.2953   -0.6924 H   0  0  0  0  0  0  0  0  0  0  0  0
   -2.4625   -3.1676   -1.5522 H   0  0  0  0  0  0  0  0  0  0  0  0
   -2.5624   -0.2836   -1.5021 H   0  0  0  0  0  0  0  0  0  0  0  0
   -1.9825   -1.1480    0.9073 H   0  0  0  0  0  0  0  0  0  0  0  0
   -3.5179   -2.7098    1.4241 H   0  0  0  0  0  0  0  0  0  0  0  0
   -4.0873   -1.3303    2.3501 H   0  0  0  0  0  0  0  0  0  0  0  0
   -5.9624   -2.5674    1.2683 H   0  0  0  0  0  0  0  0  0  0  0  0
   -5.8804   -0.9339    0.6020 H   0  0  0  0  0  0  0  0  0  0  0  0
   -4.6673   -3.4415   -0.6839 H   0  0  0  0  0  0  0  0  0  0  0  0
   -6.1317   -2.6253   -1.2350 H   0  0  0  0  0  0  0  0  0  0  0  0
   -4.9022   -0.5593   -1.7051 H   0  0  0  0  0  0  0  0  0  0  0  0
   -4.1613   -1.8809   -2.6029 H   0  0  0  0  0  0  0  0  0  0  0  0
   -2.7641    2.0657    2.2611 H   0  0  0  0  0  0  0  0  0  0  0  0
   -3.6969    0.6799    2.8157 H   0  0  0  0  0  0  0  0  0  0  0  0
   -1.5354    0.7112    3.8950 H   0  0  0  0  0  0  0  0  0  0  0  0
   -1.5692   -0.6915    2.8452 H   0  0  0  0  0  0  0  0  0  0  0  0
    0.5607    0.2120    2.3009 H   0  0  0  0  0  0  0  0  0  0  0  0
   -0.4498    0.9606    1.0615 H   0  0  0  0  0  0  0  0  0  0  0  0
   -0.6924    3.0027    2.5642 H   0  0  0  0  0  0  0  0  0  0  0  0
    0.4223    2.2468    3.6981 H   0  0  0  0  0  0  0  0  0  0  0  0
    1.0690    2.9782    0.7714 H   0  0  0  0  0  0  0  0  0  0  0  0
    1.6616    3.8372    2.2081 H   0  0  0  0  0  0  0  0  0  0  0  0
    2.1985    2.1757    1.8792 H   0  0  0  0  0  0  0  0  0  0  0  0
   -4.1194    1.0734   -0.8857 H   0  0  0  0  0  0  0  0  0  0  0  0
   -5.0629    1.1488    0.6143 H   0  0  0  0  0  0  0  0  0  0  0  0
   -4.6159    3.3319   -0.4667 H   0  0  0  0  0  0  0  0  0  0  0  0
   -4.0779    3.2918    1.2018 H   0  0  0  0  0  0  0  0  0  0  0  0
   -2.4382    4.4475   -0.2287 H   0  0  0  0  0  0  0  0  0  0  0  0
   -1.7132    3.0084    0.4911 H   0  0  0  0  0  0  0  0  0  0  0  0
   -1.9152    1.7555   -1.5798 H   0  0  0  0  0  0  0  0  0  0  0  0
   -2.8687    3.0276   -2.3454 H   0  0  0  0  0  0  0  0  0  0  0  0
    0.0366    3.4022   -1.3764 H   0  0  0  0  0  0  0  0  0  0  0  0
   -0.4199    3.0786   -3.0631 H   0  0  0  0  0  0  0  0  0  0  0  0
   -0.9211    4.5884   -2.2727 H   0  0  0  0  0  0  0  0  0  0  0  0
    0.9047    1.2173   -1.3880 H   0  0  0  0  0  0  0  0  0  0  0  0
    4.8545    0.3426    0.1031 H   0  0  0  0  0  0  0  0  0  0  0  0
    1.7599   -2.6554    0.2976 H   0  0  0  0  0  0  0  0  0  0  0  0
  1  2  1  0  0  0  0
  1 22  1  0  0  0  0
  1 36  1  0  0  0  0
  2  3  2  0  0  0  0
  2  4  1  0  0  0  0
  4  5  1  0  0  0  0
  4 37  1  0  0  0  0
  5  6  1  0  0  0  0
  5 10  1  0  0  0  0
  5 38  1  6  0  0  0
  6  7  1  0  0  0  0
  6 11  1  0  0  0  0
  6 39  1  1  0  0  0
  7  8  1  0  0  0  0
  7 40  1  0  0  0  0
  7 41  1  0  0  0  0
  8  9  1  0  0  0  0
  8 42  1  0  0  0  0
  8 43  1  0  0  0  0
  9 10  1  0  0  0  0
  9 44  1  0  0  0  0
  9 45  1  0  0  0  0
 10 46  1  0  0  0  0
 10 47  1  0  0  0  0
 11 12  1  0  0  0  0
 11 17  1  0  0  0  0
 12 13  1  0  0  0  0
 12 48  1  0  0  0  0
 12 49  1  0  0  0  0
 13 14  1  0  0  0  0
 13 50  1  0  0  0  0
 13 51  1  0  0  0  0
 14 15  1  0  0  0  0
 14 52  1  0  0  0  0
 14 53  1  0  0  0  0
 15 16  1  0  0  0  0
 15 54  1  0  0  0  0
 15 55  1  0  0  0  0
 16 56  1  0  0  0  0
 16 57  1  0  0  0  0
 16 58  1  0  0  0  0
 17 18  1  0  0  0  0
 17 59  1  0  0  0  0
 17 60  1  0  0  0  0
 18 19  1  0  0  0  0
 18 61  1  0  0  0  0
 18 62  1  0  0  0  0
 19 20  1  0  0  0  0
 19 63  1  0  0  0  0
 19 64  1  0  0  0  0
 20 21  1  0  0  0  0
 20 65  1  0  0  0  0
 20 66  1  0  0  0  0
 21 67  1  0  0  0  0
 21 68  1  0  0  0  0
 21 69  1  0  0  0  0
 22 23  2  0  0  0  0
 22 27  1  0  0  0  0
 23 24  1  0  0  0  0
 23 70  1  0  0  0  0
 24 25  2  0  0  0  0
 24 32  1  0  0  0  0
 25 26  1  0  0  0  0
 25 71  1  0  0  0  0
 26 27  2  0  0  0  0
 26 28  1  0  0  0  0
 27 72  1  0  0  0  0
 28 29  1  0  0  0  0
 28 30  1  0  0  0  0
 28 31  1  0  0  0  0
 32 33  1  0  0  0  0
 32 34  1  0  0  0  0
 32 35  1  0  0  0  0
M  END
$$$$
