Title Card Required
 OpenBabel03192317453D

 41 43  0  0  1  0  0  0  0  0999 V2000
   -0.0486    0.1972    0.2464 C   0  0  0  0  0  0  0  0  0  0  0  0
   -0.0773    0.7754    1.5365 O   0  0  0  0  0  0  0  0  0  0  0  0
   -1.3193   -0.6340    0.0980 C   0  0  0  0  0  0  0  0  0  0  0  0
   -1.5741   -1.3357   -1.0861 C   0  0  0  0  0  0  0  0  0  0  0  0
   -2.7574   -2.0518   -1.2466 C   0  0  0  0  0  0  0  0  0  0  0  0
   -3.7017   -2.0858   -0.2204 C   0  0  0  0  0  0  0  0  0  0  0  0
   -3.4489   -1.3989    0.9644 C   0  0  0  0  0  0  0  0  0  0  0  0
   -2.2666   -0.6748    1.1238 C   0  0  0  0  0  0  0  0  0  0  0  0
    1.1654   -0.7401    0.1285 C   0  0  0  0  0  0  0  0  0  0  0  0
    1.6839   -1.3099    1.2982 C   0  0  0  0  0  0  0  0  0  0  0  0
    2.7617   -2.1911    1.2507 C   0  0  0  0  0  0  0  0  0  0  0  0
    3.3425   -2.5263    0.0287 C   0  0  0  0  0  0  0  0  0  0  0  0
    2.8276   -1.9770   -1.1431 C   0  0  0  0  0  0  0  0  0  0  0  0
    1.7482   -1.0946   -1.0937 C   0  0  0  0  0  0  0  0  0  0  0  0
    0.9431    2.3978   -0.5128 N   0  0  0  0  0  0  0  0  0  0  0  0
   -0.0245    1.3603   -0.8069 C   0  0  2  0  0  0  0  0  0  0  0  0
   -1.3257    2.1742   -0.8624 C   0  0  0  0  0  0  0  0  0  0  0  0
   -1.1497    3.2429    0.2247 C   0  0  0  0  0  0  0  0  0  0  0  0
    0.3697    3.4737    0.2794 C   0  0  0  0  0  0  0  0  0  0  0  0
    2.3439    2.1309   -0.3577 C   0  0  0  0  0  0  0  0  0  0  0  0
    0.7200    1.3117    1.6280 H   0  0  0  0  0  0  0  0  0  0  0  0
   -0.8397   -1.3303   -1.8936 H   0  0  0  0  0  0  0  0  0  0  0  0
   -2.9409   -2.5899   -2.1780 H   0  0  0  0  0  0  0  0  0  0  0  0
   -4.6283   -2.6483   -0.3441 H   0  0  0  0  0  0  0  0  0  0  0  0
   -4.1781   -1.4235    1.7760 H   0  0  0  0  0  0  0  0  0  0  0  0
   -2.0697   -0.1316    2.0467 H   0  0  0  0  0  0  0  0  0  0  0  0
    1.2258   -1.0550    2.2541 H   0  0  0  0  0  0  0  0  0  0  0  0
    3.1483   -2.6208    2.1765 H   0  0  0  0  0  0  0  0  0  0  0  0
    4.1887   -3.2136   -0.0106 H   0  0  0  0  0  0  0  0  0  0  0  0
    3.2695   -2.2324   -2.1077 H   0  0  0  0  0  0  0  0  0  0  0  0
    1.3758   -0.6782   -2.0304 H   0  0  0  0  0  0  0  0  0  0  0  0
    0.1822    0.9193   -1.7955 H   0  0  0  0  0  0  0  0  0  0  0  0
   -1.3836    2.6487   -1.8526 H   0  0  0  0  0  0  0  0  0  0  0  0
   -2.2270    1.5645   -0.7266 H   0  0  0  0  0  0  0  0  0  0  0  0
   -1.7033    4.1633   -0.0025 H   0  0  0  0  0  0  0  0  0  0  0  0
   -1.5073    2.8574    1.1873 H   0  0  0  0  0  0  0  0  0  0  0  0
    0.7328    3.4702    1.3295 H   0  0  0  0  0  0  0  0  0  0  0  0
    0.6655    4.4517   -0.1418 H   0  0  0  0  0  0  0  0  0  0  0  0
    2.9031    3.0775   -0.4245 H   0  0  0  0  0  0  0  0  0  0  0  0
    2.6222    1.6506    0.6087 H   0  0  0  0  0  0  0  0  0  0  0  0
    2.7035    1.4666   -1.1557 H   0  0  0  0  0  0  0  0  0  0  0  0
  1  2  1  0  0  0  0
  1  3  1  0  0  0  0
  1  9  1  0  0  0  0
  1 16  1  0  0  0  0
  2 21  1  0  0  0  0
  3  4  2  0  0  0  0
  3  8  1  0  0  0  0
  4  5  1  0  0  0  0
  4 22  1  0  0  0  0
  5  6  2  0  0  0  0
  5 23  1  0  0  0  0
  6  7  1  0  0  0  0
  6 24  1  0  0  0  0
  7  8  2  0  0  0  0
  7 25  1  0  0  0  0
  8 26  1  0  0  0  0
  9 10  2  0  0  0  0
  9 14  1  0  0  0  0
 10 11  1  0  0  0  0
 10 27  1  0  0  0  0
 11 12  2  0  0  0  0
 11 28  1  0  0  0  0
 12 13  1  0  0  0  0
 12 29  1  0  0  0  0
 13 14  2  0  0  0  0
 13 30  1  0  0  0  0
 14 31  1  0  0  0  0
 15 16  1  0  0  0  0
 15 19  1  0  0  0  0
 15 20  1  0  0  0  0
 16 17  1  0  0  0  0
 16 32  1  6  0  0  0
 17 18  1  0  0  0  0
 17 33  1  0  0  0  0
 17 34  1  0  0  0  0
 18 19  1  0  0  0  0
 18 35  1  0  0  0  0
 18 36  1  0  0  0  0
 19 37  1  0  0  0  0
 19 38  1  0  0  0  0
 20 39  1  0  0  0  0
 20 40  1  0  0  0  0
 20 41  1  0  0  0  0
M  END
$$$$
