Title Card Required
 OpenBabel03192317423D

106112  0  0  0  0  0  0  0  0999 V2000
    0.6601    0.2475   -0.5880 O   0  0  0  0  0  0  0  0  0  0  0  0
   -0.2509   -0.6280    0.4207 P   0  0  0  0  0  0  0  0  0  0  0  0
   -1.0496    0.5556    1.1863 O   0  0  0  0  0  0  0  0  0  0  0  0
   -1.6410    1.5436    0.4292 C   0  0  0  0  0  0  0  0  0  0  0  0
   -0.8414    2.5549   -0.0602 C   0  0  0  0  0  0  0  0  0  0  0  0
    0.6243    2.5017    0.2102 C   0  0  0  0  0  0  0  0  0  0  0  0
    1.3345    1.3517   -0.0945 C   0  0  0  0  0  0  0  0  0  0  0  0
   -3.0349    1.4262    0.1454 C   0  0  0  0  0  0  0  0  0  0  0  0
   -3.6193    2.4443   -0.5713 C   0  0  0  0  0  0  0  0  0  0  0  0
   -2.8597    3.5307   -1.0810 C   0  0  0  0  0  0  0  0  0  0  0  0
   -3.4780    4.5507   -1.8555 C   0  0  0  0  0  0  0  0  0  0  0  0
   -2.7318    5.5480   -2.4316 C   0  0  0  0  0  0  0  0  0  0  0  0
   -1.3254    5.5578   -2.2708 C   0  0  0  0  0  0  0  0  0  0  0  0
   -0.7000    4.5951   -1.5152 C   0  0  0  0  0  0  0  0  0  0  0  0
   -1.4488    3.5696   -0.8743 C   0  0  0  0  0  0  0  0  0  0  0  0
    2.7448    1.2335    0.0814 C   0  0  0  0  0  0  0  0  0  0  0  0
    3.4118    2.3212    0.5994 C   0  0  0  0  0  0  0  0  0  0  0  0
    2.7341    3.5019    0.9961 C   0  0  0  0  0  0  0  0  0  0  0  0
    3.4381    4.5873    1.5869 C   0  0  0  0  0  0  0  0  0  0  0  0
    2.7714    5.7054    2.0204 C   0  0  0  0  0  0  0  0  0  0  0  0
    1.3633    5.7812    1.8897 C   0  0  0  0  0  0  0  0  0  0  0  0
    0.6578    4.7556    1.3083 C   0  0  0  0  0  0  0  0  0  0  0  0
    1.3233    3.5948    0.8238 C   0  0  0  0  0  0  0  0  0  0  0  0
   -1.2538   -1.2303   -0.6621 O   0  0  0  0  0  0  0  0  0  0  0  0
    3.4696   -0.0167   -0.2680 C   0  0  0  0  0  0  0  0  0  0  0  0
    3.2083   -0.6931   -1.4702 C   0  0  0  0  0  0  0  0  0  0  0  0
    3.9086   -1.8469   -1.8086 C   0  0  0  0  0  0  0  0  0  0  0  0
    4.8909   -2.3140   -0.9182 C   0  0  0  0  0  0  0  0  0  0  0  0
    5.1759   -1.6684    0.2840 C   0  0  0  0  0  0  0  0  0  0  0  0
    4.4454   -0.5123    0.5946 C   0  0  0  0  0  0  0  0  0  0  0  0
    6.2279   -2.1799    1.2738 C   0  0  0  0  0  0  0  0  0  0  0  0
    7.2896   -1.0901    1.4946 C   0  0  0  0  0  0  0  0  0  0  0  0
    5.5438   -2.5084    2.6107 C   0  0  0  0  0  0  0  0  0  0  0  0
    6.9292   -3.4420    0.7654 C   0  0  0  0  0  0  0  0  0  0  0  0
    3.6398   -2.6172   -3.1055 C   0  0  0  0  0  0  0  0  0  0  0  0
    2.5064   -1.9861   -3.9191 C   0  0  0  0  0  0  0  0  0  0  0  0
    4.9145   -2.6261   -3.9647 C   0  0  0  0  0  0  0  0  0  0  0  0
    3.2405   -4.0616   -2.7622 C   0  0  0  0  0  0  0  0  0  0  0  0
   -3.7297    0.1481    0.4549 C   0  0  0  0  0  0  0  0  0  0  0  0
   -3.5229   -0.5244    1.6711 C   0  0  0  0  0  0  0  0  0  0  0  0
   -3.9438   -1.8402    1.8443 C   0  0  0  0  0  0  0  0  0  0  0  0
   -4.6458   -2.4573    0.7920 C   0  0  0  0  0  0  0  0  0  0  0  0
   -4.9286   -1.7962   -0.4043 C   0  0  0  0  0  0  0  0  0  0  0  0
   -4.4471   -0.4867   -0.5586 C   0  0  0  0  0  0  0  0  0  0  0  0
   -5.6718   -2.4637   -1.5661 C   0  0  0  0  0  0  0  0  0  0  0  0
   -6.1596   -3.8688   -1.2039 C   0  0  0  0  0  0  0  0  0  0  0  0
   -6.8907   -1.6093   -1.9485 C   0  0  0  0  0  0  0  0  0  0  0  0
   -4.7210   -2.5716   -2.7701 C   0  0  0  0  0  0  0  0  0  0  0  0
   -3.5941   -2.6465    3.0986 C   0  0  0  0  0  0  0  0  0  0  0  0
   -2.8511   -1.7948    4.1320 C   0  0  0  0  0  0  0  0  0  0  0  0
   -4.8753   -3.2013    3.7385 C   0  0  0  0  0  0  0  0  0  0  0  0
   -2.6689   -3.8043    2.6844 C   0  0  0  0  0  0  0  0  0  0  0  0
    0.3751   -1.5529    1.3655 O   0  0  0  0  0  0  0  0  0  0  0  0
   -4.6883    2.4004   -0.7922 H   0  0  0  0  0  0  0  0  0  0  0  0
   -4.5606    4.5158   -1.9931 H   0  0  0  0  0  0  0  0  0  0  0  0
   -3.2166    6.3233   -3.0264 H   0  0  0  0  0  0  0  0  0  0  0  0
   -0.7315    6.3335   -2.7561 H   0  0  0  0  0  0  0  0  0  0  0  0
    0.3843    4.6084   -1.4079 H   0  0  0  0  0  0  0  0  0  0  0  0
    4.4965    2.2735    0.7176 H   0  0  0  0  0  0  0  0  0  0  0  0
    4.5210    4.5055    1.6997 H   0  0  0  0  0  0  0  0  0  0  0  0
    3.3191    6.5295    2.4797 H   0  0  0  0  0  0  0  0  0  0  0  0
    0.8325    6.6591    2.2608 H   0  0  0  0  0  0  0  0  0  0  0  0
   -0.4270    4.8212    1.2248 H   0  0  0  0  0  0  0  0  0  0  0  0
   -1.9327   -1.7983   -0.2605 H   0  0  0  0  0  0  0  0  0  0  0  0
    2.4459   -0.2939   -2.1354 H   0  0  0  0  0  0  0  0  0  0  0  0
    5.4402   -3.2183   -1.1807 H   0  0  0  0  0  0  0  0  0  0  0  0
    4.6183    0.0031    1.5421 H   0  0  0  0  0  0  0  0  0  0  0  0
    6.8450   -0.1689    1.8982 H   0  0  0  0  0  0  0  0  0  0  0  0
    8.0495   -1.4398    2.2103 H   0  0  0  0  0  0  0  0  0  0  0  0
    7.7929   -0.8391    0.5491 H   0  0  0  0  0  0  0  0  0  0  0  0
    4.7709   -3.2785    2.4733 H   0  0  0  0  0  0  0  0  0  0  0  0
    6.2847   -2.8820    3.3345 H   0  0  0  0  0  0  0  0  0  0  0  0
    5.0605   -1.6227    3.0469 H   0  0  0  0  0  0  0  0  0  0  0  0
    6.2178   -4.2686    0.6222 H   0  0  0  0  0  0  0  0  0  0  0  0
    7.4480   -3.2614   -0.1879 H   0  0  0  0  0  0  0  0  0  0  0  0
    7.6796   -3.7689    1.5001 H   0  0  0  0  0  0  0  0  0  0  0  0
    2.7524   -0.9593   -4.2272 H   0  0  0  0  0  0  0  0  0  0  0  0
    2.3325   -2.5769   -4.8306 H   0  0  0  0  0  0  0  0  0  0  0  0
    1.5665   -1.9583   -3.3476 H   0  0  0  0  0  0  0  0  0  0  0  0
    5.7524   -3.1058   -3.4384 H   0  0  0  0  0  0  0  0  0  0  0  0
    4.7400   -3.1795   -4.9003 H   0  0  0  0  0  0  0  0  0  0  0  0
    5.2170   -1.5997   -4.2205 H   0  0  0  0  0  0  0  0  0  0  0  0
    4.0383   -4.5848   -2.2158 H   0  0  0  0  0  0  0  0  0  0  0  0
    2.3357   -4.0752   -2.1367 H   0  0  0  0  0  0  0  0  0  0  0  0
    3.0354   -4.6278   -3.6840 H   0  0  0  0  0  0  0  0  0  0  0  0
   -2.9754   -0.0161    2.4600 H   0  0  0  0  0  0  0  0  0  0  0  0
   -4.9654   -3.4915    0.9200 H   0  0  0  0  0  0  0  0  0  0  0  0
   -4.5671    0.0271   -1.5148 H   0  0  0  0  0  0  0  0  0  0  0  0
   -6.8372   -3.8498   -0.3374 H   0  0  0  0  0  0  0  0  0  0  0  0
   -6.7100   -4.2979   -2.0538 H   0  0  0  0  0  0  0  0  0  0  0  0
   -5.3217   -4.5435   -0.9751 H   0  0  0  0  0  0  0  0  0  0  0  0
   -6.5949   -0.5965   -2.2569 H   0  0  0  0  0  0  0  0  0  0  0  0
   -7.4292   -2.0741   -2.7883 H   0  0  0  0  0  0  0  0  0  0  0  0
   -7.5846   -1.5182   -1.0998 H   0  0  0  0  0  0  0  0  0  0  0  0
   -4.3716   -1.5835   -3.1020 H   0  0  0  0  0  0  0  0  0  0  0  0
   -3.8357   -3.1735   -2.5143 H   0  0  0  0  0  0  0  0  0  0  0  0
   -5.2323   -3.0539   -3.6174 H   0  0  0  0  0  0  0  0  0  0  0  0
   -3.4568   -0.9371    4.4609 H   0  0  0  0  0  0  0  0  0  0  0  0
   -2.6240   -2.4070    5.0170 H   0  0  0  0  0  0  0  0  0  0  0  0
   -1.8974   -1.4201    3.7306 H   0  0  0  0  0  0  0  0  0  0  0  0
   -5.4225   -3.8635    3.0519 H   0  0  0  0  0  0  0  0  0  0  0  0
   -4.6265   -3.7838    4.6385 H   0  0  0  0  0  0  0  0  0  0  0  0
   -5.5499   -2.3834    4.0324 H   0  0  0  0  0  0  0  0  0  0  0  0
   -3.1521   -4.4686    1.9526 H   0  0  0  0  0  0  0  0  0  0  0  0
   -1.7377   -3.4133    2.2447 H   0  0  0  0  0  0  0  0  0  0  0  0
   -2.4008   -4.4086    3.5647 H   0  0  0  0  0  0  0  0  0  0  0  0
  1  2  1  0  0  0  0
  1  7  1  0  0  0  0
  2  3  1  0  0  0  0
  2 24  1  0  0  0  0
  2 53  2  0  0  0  0
  3  4  1  0  0  0  0
  4  5  2  0  0  0  0
  4  8  1  0  0  0  0
  5  6  1  0  0  0  0
  5 15  1  0  0  0  0
  6  7  2  0  0  0  0
  6 23  1  0  0  0  0
  7 16  1  0  0  0  0
  8  9  2  0  0  0  0
  8 39  1  0  0  0  0
  9 10  1  0  0  0  0
  9 54  1  0  0  0  0
 10 11  2  0  0  0  0
 10 15  1  0  0  0  0
 11 12  1  0  0  0  0
 11 55  1  0  0  0  0
 12 13  2  0  0  0  0
 12 56  1  0  0  0  0
 13 14  1  0  0  0  0
 13 57  1  0  0  0  0
 14 15  2  0  0  0  0
 14 58  1  0  0  0  0
 16 17  2  0  0  0  0
 16 25  1  0  0  0  0
 17 18  1  0  0  0  0
 17 59  1  0  0  0  0
 18 19  2  0  0  0  0
 18 23  1  0  0  0  0
 19 20  1  0  0  0  0
 19 60  1  0  0  0  0
 20 21  2  0  0  0  0
 20 61  1  0  0  0  0
 21 22  1  0  0  0  0
 21 62  1  0  0  0  0
 22 23  2  0  0  0  0
 22 63  1  0  0  0  0
 24 64  1  0  0  0  0
 25 26  2  0  0  0  0
 25 30  1  0  0  0  0
 26 27  1  0  0  0  0
 26 65  1  0  0  0  0
 27 28  2  0  0  0  0
 27 35  1  0  0  0  0
 28 29  1  0  0  0  0
 28 66  1  0  0  0  0
 29 30  2  0  0  0  0
 29 31  1  0  0  0  0
 30 67  1  0  0  0  0
 31 32  1  0  0  0  0
 31 33  1  0  0  0  0
 31 34  1  0  0  0  0
 32 68  1  0  0  0  0
 32 69  1  0  0  0  0
 32 70  1  0  0  0  0
 33 71  1  0  0  0  0
 33 72  1  0  0  0  0
 33 73  1  0  0  0  0
 34 74  1  0  0  0  0
 34 75  1  0  0  0  0
 34 76  1  0  0  0  0
 35 36  1  0  0  0  0
 35 37  1  0  0  0  0
 35 38  1  0  0  0  0
 36 77  1  0  0  0  0
 36 78  1  0  0  0  0
 36 79  1  0  0  0  0
 37 80  1  0  0  0  0
 37 81  1  0  0  0  0
 37 82  1  0  0  0  0
 38 83  1  0  0  0  0
 38 84  1  0  0  0  0
 38 85  1  0  0  0  0
 39 40  2  0  0  0  0
 39 44  1  0  0  0  0
 40 41  1  0  0  0  0
 40 86  1  0  0  0  0
 41 42  2  0  0  0  0
 41 49  1  0  0  0  0
 42 43  1  0  0  0  0
 42 87  1  0  0  0  0
 43 44  2  0  0  0  0
 43 45  1  0  0  0  0
 44 88  1  0  0  0  0
 45 46  1  0  0  0  0
 45 47  1  0  0  0  0
 45 48  1  0  0  0  0
 46 89  1  0  0  0  0
 46 90  1  0  0  0  0
 46 91  1  0  0  0  0
 47 92  1  0  0  0  0
 47 93  1  0  0  0  0
 47 94  1  0  0  0  0
 48 95  1  0  0  0  0
 48 96  1  0  0  0  0
 48 97  1  0  0  0  0
 49 50  1  0  0  0  0
 49 51  1  0  0  0  0
 49 52  1  0  0  0  0
 50 98  1  0  0  0  0
 50 99  1  0  0  0  0
 50100  1  0  0  0  0
 51101  1  0  0  0  0
 51102  1  0  0  0  0
 51103  1  0  0  0  0
 52104  1  0  0  0  0
 52105  1  0  0  0  0
 52106  1  0  0  0  0
M  END
$$$$
