Title Card Required
 OpenBabel03192317553D

 48 50  0  0  1  0  0  0  0  0999 V2000
   -1.7842   -1.5545    0.1190 C   0  0  0  0  0  0  0  0  0  0  0  0
   -2.4097   -1.8102   -1.0972 C   0  0  0  0  0  0  0  0  0  0  0  0
   -3.7225   -1.3845   -1.2755 C   0  0  0  0  0  0  0  0  0  0  0  0
   -4.4066   -0.7085   -0.2571 C   0  0  0  0  0  0  0  0  0  0  0  0
   -3.7559   -0.4930    0.9650 C   0  0  0  0  0  0  0  0  0  0  0  0
   -2.4453   -0.9133    1.1629 C   0  0  0  0  0  0  0  0  0  0  0  0
   -0.0626   -1.9420    0.2862 S   0  0  0  0  0  0  0  0  0  0  0  0
    0.2743   -1.8542    1.7021 O   0  0  0  0  0  0  0  0  0  0  0  0
    0.2488   -3.1284   -0.4891 O   0  0  0  0  0  0  0  0  0  0  0  0
    0.6682   -0.6815   -0.5380 N   0  0  0  0  0  0  0  0  0  0  0  0
   -5.8058   -0.1969   -0.4681 C   0  0  0  0  0  0  0  0  0  0  0  0
    0.8701    0.5793    0.1724 C   0  0  1  0  0  0  0  0  0  0  0  0
    2.0866    1.3071   -0.4498 C   0  0  2  0  0  0  0  0  0  0  0  0
    3.3843    0.5224   -0.2858 C   0  0  0  0  0  0  0  0  0  0  0  0
    3.5278   -0.5689    0.5780 C   0  0  0  0  0  0  0  0  0  0  0  0
    4.7635   -1.2086    0.7092 C   0  0  0  0  0  0  0  0  0  0  0  0
    5.8665   -0.7637   -0.0119 C   0  0  0  0  0  0  0  0  0  0  0  0
    5.7334    0.3297   -0.8706 C   0  0  0  0  0  0  0  0  0  0  0  0
    4.5041    0.9660   -1.0018 C   0  0  0  0  0  0  0  0  0  0  0  0
   -0.3842    1.4317    0.1255 C   0  0  0  0  0  0  0  0  0  0  0  0
   -0.7629    2.1817    1.2420 C   0  0  0  0  0  0  0  0  0  0  0  0
   -1.9149    2.9683    1.2128 C   0  0  0  0  0  0  0  0  0  0  0  0
   -2.7021    3.0085    0.0634 C   0  0  0  0  0  0  0  0  0  0  0  0
   -2.3275    2.2654   -1.0578 C   0  0  0  0  0  0  0  0  0  0  0  0
   -1.1739    1.4853   -1.0278 C   0  0  0  0  0  0  0  0  0  0  0  0
    2.2969    2.6514    0.0499 N   0  0  0  0  0  0  0  0  0  0  0  0
   -1.8652   -2.3313   -1.8866 H   0  0  0  0  0  0  0  0  0  0  0  0
   -4.2269   -1.5759   -2.2248 H   0  0  0  0  0  0  0  0  0  0  0  0
   -4.2825    0.0233    1.7707 H   0  0  0  0  0  0  0  0  0  0  0  0
   -1.9236   -0.7398    2.1049 H   0  0  0  0  0  0  0  0  0  0  0  0
    1.4928   -1.0572   -1.0092 H   0  0  0  0  0  0  0  0  0  0  0  0
   -6.4541   -0.4544    0.3810 H   0  0  0  0  0  0  0  0  0  0  0  0
   -5.7999    0.9007   -0.5566 H   0  0  0  0  0  0  0  0  0  0  0  0
   -6.2512   -0.6086   -1.3827 H   0  0  0  0  0  0  0  0  0  0  0  0
    1.1052    0.3905    1.2351 H   0  0  0  0  0  0  0  0  0  0  0  0
    1.8771    1.3912   -1.5320 H   0  0  0  0  0  0  0  0  0  0  0  0
    2.6799   -0.9542    1.1496 H   0  0  0  0  0  0  0  0  0  0  0  0
    4.8544   -2.0613    1.3836 H   0  0  0  0  0  0  0  0  0  0  0  0
    6.8296   -1.2658    0.0923 H   0  0  0  0  0  0  0  0  0  0  0  0
    6.5940    0.6872   -1.4384 H   0  0  0  0  0  0  0  0  0  0  0  0
    4.3983    1.8357   -1.6535 H   0  0  0  0  0  0  0  0  0  0  0  0
   -0.1586    2.1335    2.1516 H   0  0  0  0  0  0  0  0  0  0  0  0
   -2.2022    3.5440    2.0942 H   0  0  0  0  0  0  0  0  0  0  0  0
   -3.6076    3.6173    0.0413 H   0  0  0  0  0  0  0  0  0  0  0  0
   -2.9431    2.2872   -1.9591 H   0  0  0  0  0  0  0  0  0  0  0  0
   -0.8932    0.8763   -1.8897 H   0  0  0  0  0  0  0  0  0  0  0  0
    1.4568    3.2170   -0.0577 H   0  0  0  0  0  0  0  0  0  0  0  0
    2.5358    2.6296    1.0406 H   0  0  0  0  0  0  0  0  0  0  0  0
  1  2  2  0  0  0  0
  1  6  1  0  0  0  0
  1  7  1  0  0  0  0
  2  3  1  0  0  0  0
  2 27  1  0  0  0  0
  3  4  2  0  0  0  0
  3 28  1  0  0  0  0
  4  5  1  0  0  0  0
  4 11  1  0  0  0  0
  5  6  2  0  0  0  0
  5 29  1  0  0  0  0
  6 30  1  0  0  0  0
  7  8  2  0  0  0  0
  7  9  2  0  0  0  0
  7 10  1  0  0  0  0
 10 12  1  0  0  0  0
 10 31  1  0  0  0  0
 11 32  1  0  0  0  0
 11 33  1  0  0  0  0
 11 34  1  0  0  0  0
 12 13  1  0  0  0  0
 12 20  1  0  0  0  0
 12 35  1  1  0  0  0
 13 14  1  0  0  0  0
 13 26  1  0  0  0  0
 13 36  1  6  0  0  0
 14 15  2  0  0  0  0
 14 19  1  0  0  0  0
 15 16  1  0  0  0  0
 15 37  1  0  0  0  0
 16 17  2  0  0  0  0
 16 38  1  0  0  0  0
 17 18  1  0  0  0  0
 17 39  1  0  0  0  0
 18 19  2  0  0  0  0
 18 40  1  0  0  0  0
 19 41  1  0  0  0  0
 20 21  2  0  0  0  0
 20 25  1  0  0  0  0
 21 22  1  0  0  0  0
 21 42  1  0  0  0  0
 22 23  2  0  0  0  0
 22 43  1  0  0  0  0
 23 24  1  0  0  0  0
 23 44  1  0  0  0  0
 24 25  2  0  0  0  0
 24 45  1  0  0  0  0
 25 46  1  0  0  0  0
 26 47  1  0  0  0  0
 26 48  1  0  0  0  0
M  END
$$$$
