Title Card Required
 OpenBabel03192317483D

 38 42  0  0  0  0  0  0  0  0999 V2000
    1.8611   -0.4650   -1.2946 O   0  0  0  0  0  0  0  0  0  0  0  0
    2.6533   -1.3302   -0.1685 P   0  0  0  0  0  0  0  0  0  0  0  0
    1.5852   -1.2813    1.0601 O   0  0  0  0  0  0  0  0  0  0  0  0
    0.2652   -1.5961    0.7814 C   0  0  0  0  0  0  0  0  0  0  0  0
   -0.5341   -0.6688    0.1429 C   0  0  0  0  0  0  0  0  0  0  0  0
    0.0409    0.6540   -0.2193 C   0  0  0  0  0  0  0  0  0  0  0  0
    1.2156    0.7024   -0.9479 C   0  0  0  0  0  0  0  0  0  0  0  0
   -0.1979   -2.8693    1.1779 C   0  0  0  0  0  0  0  0  0  0  0  0
   -1.4976   -3.2155    0.9228 C   0  0  0  0  0  0  0  0  0  0  0  0
   -2.3617   -2.3279    0.2245 C   0  0  0  0  0  0  0  0  0  0  0  0
   -3.6939   -2.7067   -0.0963 C   0  0  0  0  0  0  0  0  0  0  0  0
   -4.5080   -1.8740   -0.8223 C   0  0  0  0  0  0  0  0  0  0  0  0
   -4.0160   -0.6248   -1.2714 C   0  0  0  0  0  0  0  0  0  0  0  0
   -2.7377   -0.2242   -0.9663 C   0  0  0  0  0  0  0  0  0  0  0  0
   -1.8774   -1.0527   -0.1922 C   0  0  0  0  0  0  0  0  0  0  0  0
    1.8028    1.9169   -1.3722 C   0  0  0  0  0  0  0  0  0  0  0  0
    1.2053    3.1041   -1.0415 C   0  0  0  0  0  0  0  0  0  0  0  0
    0.0285    3.1261   -0.2436 C   0  0  0  0  0  0  0  0  0  0  0  0
   -0.5644    4.3559    0.1530 C   0  0  0  0  0  0  0  0  0  0  0  0
   -1.6685    4.3750    0.9673 C   0  0  0  0  0  0  0  0  0  0  0  0
   -2.2227    3.1573    1.4312 C   0  0  0  0  0  0  0  0  0  0  0  0
   -1.6808    1.9523    1.0550 C   0  0  0  0  0  0  0  0  0  0  0  0
   -0.5509    1.8970    0.1910 C   0  0  0  0  0  0  0  0  0  0  0  0
    4.1849   -0.1361    0.5788 S   0  0  0  0  0  0  0  0  0  0  0  0
    3.0881   -2.6365   -0.6602 O   0  0  0  0  0  0  0  0  0  0  0  0
    0.5000   -3.5400    1.6784 H   0  0  0  0  0  0  0  0  0  0  0  0
   -1.8791   -4.1907    1.2306 H   0  0  0  0  0  0  0  0  0  0  0  0
   -4.0521   -3.6822    0.2388 H   0  0  0  0  0  0  0  0  0  0  0  0
   -5.5267   -2.1766   -1.0681 H   0  0  0  0  0  0  0  0  0  0  0  0
   -4.6552    0.0229   -1.8731 H   0  0  0  0  0  0  0  0  0  0  0  0
   -2.3680    0.7348   -1.3296 H   0  0  0  0  0  0  0  0  0  0  0  0
    2.7199    1.8686   -1.9596 H   0  0  0  0  0  0  0  0  0  0  0  0
    1.6368    4.0507   -1.3723 H   0  0  0  0  0  0  0  0  0  0  0  0
   -0.1152    5.2872   -0.1979 H   0  0  0  0  0  0  0  0  0  0  0  0
   -2.1132    5.3241    1.2695 H   0  0  0  0  0  0  0  0  0  0  0  0
   -3.0857    3.1755    2.0982 H   0  0  0  0  0  0  0  0  0  0  0  0
   -2.1111    1.0222    1.4265 H   0  0  0  0  0  0  0  0  0  0  0  0
    3.3368    0.8101    1.0373 H   0  0  0  0  0  0  0  0  0  0  0  0
  1  2  1  0  0  0  0
  1  7  1  0  0  0  0
  2  3  1  0  0  0  0
  2 24  1  0  0  0  0
  2 25  2  0  0  0  0
  3  4  1  0  0  0  0
  4  5  2  0  0  0  0
  4  8  1  0  0  0  0
  5  6  1  0  0  0  0
  5 15  1  0  0  0  0
  6  7  2  0  0  0  0
  6 23  1  0  0  0  0
  7 16  1  0  0  0  0
  8  9  2  0  0  0  0
  8 26  1  0  0  0  0
  9 10  1  0  0  0  0
  9 27  1  0  0  0  0
 10 11  2  0  0  0  0
 10 15  1  0  0  0  0
 11 12  1  0  0  0  0
 11 28  1  0  0  0  0
 12 13  2  0  0  0  0
 12 29  1  0  0  0  0
 13 14  1  0  0  0  0
 13 30  1  0  0  0  0
 14 15  2  0  0  0  0
 14 31  1  0  0  0  0
 16 17  2  0  0  0  0
 16 32  1  0  0  0  0
 17 18  1  0  0  0  0
 17 33  1  0  0  0  0
 18 19  2  0  0  0  0
 18 23  1  0  0  0  0
 19 20  1  0  0  0  0
 19 34  1  0  0  0  0
 20 21  2  0  0  0  0
 20 35  1  0  0  0  0
 21 22  1  0  0  0  0
 21 36  1  0  0  0  0
 22 23  2  0  0  0  0
 22 37  1  0  0  0  0
 24 38  1  0  0  0  0
M  END
$$$$
