Title Card Required
 OpenBabel03192317543D

 85 93  0  0  1  0  0  0  0  0999 V2000
    0.7857   -0.6674   -1.6668 C   0  0  0  0  0  0  0  0  0  0  0  0
    1.2766   -1.5594   -2.6210 C   0  0  0  0  0  0  0  0  0  0  0  0
    0.3537   -2.3188   -3.3400 C   0  0  0  0  0  0  0  0  0  0  0  0
   -1.0038   -2.1611   -3.0834 C   0  0  0  0  0  0  0  0  0  0  0  0
   -1.3904   -1.2441   -2.1010 C   0  0  0  0  0  0  0  0  0  0  0  0
   -0.5132   -0.5199   -1.4195 N   0  0  0  0  0  0  0  0  0  0  0  0
    3.0549   -0.1345   -1.0934 O   0  0  0  0  0  0  0  0  0  0  0  0
    1.7019    0.2105   -0.8470 C   0  0  2  0  0  0  0  0  0  0  0  0
    1.5190    0.0997    0.5750 N   0  0  2  0  0  0  0  0  0  0  0  0
    2.7737    0.5991    1.1426 C   0  0  2  0  0  0  0  0  0  0  0  0
    3.8421    0.3925   -0.0377 C   0  0  0  0  0  0  0  0  0  0  0  0
    2.9661   -0.1692    2.4642 C   0  0  0  0  0  0  0  0  0  0  0  0
    1.7262   -1.0758    2.5696 C   0  0  0  0  0  0  0  0  0  0  0  0
    1.2894   -1.2400    1.1195 C   0  0  0  0  0  0  0  0  0  0  0  0
    4.9360   -0.6300    0.2687 C   0  0  0  0  0  0  0  0  0  0  0  0
    6.1132   -0.2731    0.9360 C   0  0  0  0  0  0  0  0  0  0  0  0
    7.0646   -1.2366    1.2673 C   0  0  0  0  0  0  0  0  0  0  0  0
    6.8632   -2.5728    0.9262 C   0  0  0  0  0  0  0  0  0  0  0  0
    5.7021   -2.9345    0.2459 C   0  0  0  0  0  0  0  0  0  0  0  0
    4.7480   -1.9721   -0.0796 C   0  0  0  0  0  0  0  0  0  0  0  0
    4.4446    1.7305   -0.4660 C   0  0  0  0  0  0  0  0  0  0  0  0
    4.6578    1.9887   -1.8231 C   0  0  0  0  0  0  0  0  0  0  0  0
    5.2337    3.1899   -2.2338 C   0  0  0  0  0  0  0  0  0  0  0  0
    5.6122    4.1467   -1.2937 C   0  0  0  0  0  0  0  0  0  0  0  0
    5.4070    3.8966    0.0621 C   0  0  0  0  0  0  0  0  0  0  0  0
    4.8219    2.6990    0.4707 C   0  0  0  0  0  0  0  0  0  0  0  0
   -3.0951    0.1397   -1.1067 O   0  0  0  0  0  0  0  0  0  0  0  0
   -2.8542   -1.1043   -1.7294 C   0  0  2  0  0  0  0  0  0  0  0  0
   -3.2916   -2.1318   -0.8179 N   0  0  2  0  0  0  0  0  0  0  0  0
   -4.4233   -1.5320   -0.1153 C   0  0  2  0  0  0  0  0  0  0  0  0
   -4.0716    0.0198   -0.0854 C   0  0  0  0  0  0  0  0  0  0  0  0
   -4.5380   -2.3018    1.2107 C   0  0  0  0  0  0  0  0  0  0  0  0
   -3.3071   -3.2343    1.2242 C   0  0  0  0  0  0  0  0  0  0  0  0
   -2.3597   -2.5920    0.2166 C   0  0  0  0  0  0  0  0  0  0  0  0
   -3.4459    0.5424    1.2168 C   0  0  0  0  0  0  0  0  0  0  0  0
   -4.2292    0.8394    2.3396 C   0  0  0  0  0  0  0  0  0  0  0  0
   -3.6441    1.3056    3.5158 C   0  0  0  0  0  0  0  0  0  0  0  0
   -2.2650    1.5012    3.5858 C   0  0  0  0  0  0  0  0  0  0  0  0
   -1.4809    1.2302    2.4661 C   0  0  0  0  0  0  0  0  0  0  0  0
   -2.0639    0.7566    1.2901 C   0  0  0  0  0  0  0  0  0  0  0  0
   -5.2899    0.8630   -0.4483 C   0  0  0  0  0  0  0  0  0  0  0  0
   -5.1229    2.0143   -1.2226 C   0  0  0  0  0  0  0  0  0  0  0  0
   -6.2173    2.8159   -1.5403 C   0  0  0  0  0  0  0  0  0  0  0  0
   -7.4922    2.4802   -1.0847 C   0  0  0  0  0  0  0  0  0  0  0  0
   -7.6668    1.3340   -0.3121 C   0  0  0  0  0  0  0  0  0  0  0  0
   -6.5715    0.5285    0.0003 C   0  0  0  0  0  0  0  0  0  0  0  0
    2.3501   -1.6396   -2.7863 H   0  0  0  0  0  0  0  0  0  0  0  0
    0.6954   -3.0263   -4.0974 H   0  0  0  0  0  0  0  0  0  0  0  0
   -1.7593   -2.7350   -3.6219 H   0  0  0  0  0  0  0  0  0  0  0  0
    1.5391    1.2672   -1.1385 H   0  0  0  0  0  0  0  0  0  0  0  0
    2.6827    1.6808    1.3102 H   0  0  0  0  0  0  0  0  0  0  0  0
    3.0520    0.5170    3.3172 H   0  0  0  0  0  0  0  0  0  0  0  0
    3.8819   -0.7730    2.4393 H   0  0  0  0  0  0  0  0  0  0  0  0
    0.9244   -0.5767    3.1327 H   0  0  0  0  0  0  0  0  0  0  0  0
    1.9403   -2.0349    3.0585 H   0  0  0  0  0  0  0  0  0  0  0  0
    1.9030   -2.0111    0.6125 H   0  0  0  0  0  0  0  0  0  0  0  0
    0.2320   -1.5155    1.0109 H   0  0  0  0  0  0  0  0  0  0  0  0
    6.3006    0.7691    1.1960 H   0  0  0  0  0  0  0  0  0  0  0  0
    7.9744   -0.9364    1.7898 H   0  0  0  0  0  0  0  0  0  0  0  0
    7.6106   -3.3256    1.1810 H   0  0  0  0  0  0  0  0  0  0  0  0
    5.5366   -3.9750   -0.0388 H   0  0  0  0  0  0  0  0  0  0  0  0
    3.8463   -2.2551   -0.6219 H   0  0  0  0  0  0  0  0  0  0  0  0
    4.3581    1.2369   -2.5535 H   0  0  0  0  0  0  0  0  0  0  0  0
    5.3874    3.3792   -3.2975 H   0  0  0  0  0  0  0  0  0  0  0  0
    6.0621    5.0868   -1.6166 H   0  0  0  0  0  0  0  0  0  0  0  0
    5.6958    4.6400    0.8067 H   0  0  0  0  0  0  0  0  0  0  0  0
    4.6604    2.5211    1.5369 H   0  0  0  0  0  0  0  0  0  0  0  0
   -3.4691   -1.1681   -2.6479 H   0  0  0  0  0  0  0  0  0  0  0  0
   -5.3261   -1.6335   -0.7359 H   0  0  0  0  0  0  0  0  0  0  0  0
   -5.4763   -2.8699    1.2573 H   0  0  0  0  0  0  0  0  0  0  0  0
   -4.5217   -1.6188    2.0682 H   0  0  0  0  0  0  0  0  0  0  0  0
   -3.5885   -4.2372    0.8737 H   0  0  0  0  0  0  0  0  0  0  0  0
   -2.8567   -3.3321    2.2203 H   0  0  0  0  0  0  0  0  0  0  0  0
   -1.8110   -1.7560    0.6846 H   0  0  0  0  0  0  0  0  0  0  0  0
   -1.6266   -3.2947   -0.2058 H   0  0  0  0  0  0  0  0  0  0  0  0
   -5.3137    0.7208    2.2976 H   0  0  0  0  0  0  0  0  0  0  0  0
   -4.2739    1.5307    4.3783 H   0  0  0  0  0  0  0  0  0  0  0  0
   -1.8100    1.8765    4.5042 H   0  0  0  0  0  0  0  0  0  0  0  0
   -0.4009    1.3928    2.4816 H   0  0  0  0  0  0  0  0  0  0  0  0
   -1.4388    0.5581    0.4174 H   0  0  0  0  0  0  0  0  0  0  0  0
   -4.1231    2.2660   -1.5776 H   0  0  0  0  0  0  0  0  0  0  0  0
   -6.0737    3.7104   -2.1488 H   0  0  0  0  0  0  0  0  0  0  0  0
   -8.3486    3.1083   -1.3352 H   0  0  0  0  0  0  0  0  0  0  0  0
   -8.6609    1.0588    0.0442 H   0  0  0  0  0  0  0  0  0  0  0  0
   -6.7230   -0.3744    0.5985 H   0  0  0  0  0  0  0  0  0  0  0  0
  1  2  2  0  0  0  0
  1  6  1  0  0  0  0
  1  8  1  0  0  0  0
  2  3  1  0  0  0  0
  2 47  1  0  0  0  0
  3  4  2  0  0  0  0
  3 48  1  0  0  0  0
  4  5  1  0  0  0  0
  4 49  1  0  0  0  0
  5  6  2  0  0  0  0
  5 28  1  0  0  0  0
  7  8  1  0  0  0  0
  7 11  1  0  0  0  0
  8  9  1  0  0  0  0
  8 50  1  6  0  0  0
  9 10  1  0  0  0  0
  9 14  1  6  0  0  0
 10 11  1  0  0  0  0
 10 12  1  0  0  0  0
 10 51  1  1  0  0  0
 11 15  1  0  0  0  0
 11 21  1  0  0  0  0
 12 13  1  0  0  0  0
 12 52  1  0  0  0  0
 12 53  1  0  0  0  0
 13 14  1  0  0  0  0
 13 54  1  0  0  0  0
 13 55  1  0  0  0  0
 14 56  1  0  0  0  0
 14 57  1  0  0  0  0
 15 16  2  0  0  0  0
 15 20  1  0  0  0  0
 16 17  1  0  0  0  0
 16 58  1  0  0  0  0
 17 18  2  0  0  0  0
 17 59  1  0  0  0  0
 18 19  1  0  0  0  0
 18 60  1  0  0  0  0
 19 20  2  0  0  0  0
 19 61  1  0  0  0  0
 20 62  1  0  0  0  0
 21 22  2  0  0  0  0
 21 26  1  0  0  0  0
 22 23  1  0  0  0  0
 22 63  1  0  0  0  0
 23 24  2  0  0  0  0
 23 64  1  0  0  0  0
 24 25  1  0  0  0  0
 24 65  1  0  0  0  0
 25 26  2  0  0  0  0
 25 66  1  0  0  0  0
 26 67  1  0  0  0  0
 27 28  1  0  0  0  0
 27 31  1  0  0  0  0
 28 29  1  0  0  0  0
 28 68  1  6  0  0  0
 29 30  1  0  0  0  0
 29 34  1  1  0  0  0
 30 31  1  0  0  0  0
 30 32  1  0  0  0  0
 30 69  1  6  0  0  0
 31 35  1  0  0  0  0
 31 41  1  0  0  0  0
 32 33  1  0  0  0  0
 32 70  1  0  0  0  0
 32 71  1  0  0  0  0
 33 34  1  0  0  0  0
 33 72  1  0  0  0  0
 33 73  1  0  0  0  0
 34 74  1  0  0  0  0
 34 75  1  0  0  0  0
 35 36  2  0  0  0  0
 35 40  1  0  0  0  0
 36 37  1  0  0  0  0
 36 76  1  0  0  0  0
 37 38  2  0  0  0  0
 37 77  1  0  0  0  0
 38 39  1  0  0  0  0
 38 78  1  0  0  0  0
 39 40  2  0  0  0  0
 39 79  1  0  0  0  0
 40 80  1  0  0  0  0
 41 42  2  0  0  0  0
 41 46  1  0  0  0  0
 42 43  1  0  0  0  0
 42 81  1  0  0  0  0
 43 44  2  0  0  0  0
 43 82  1  0  0  0  0
 44 45  1  0  0  0  0
 44 83  1  0  0  0  0
 45 46  2  0  0  0  0
 45 84  1  0  0  0  0
 46 85  1  0  0  0  0
M  END
$$$$
