Title Card Required
 OpenBabel03192317493D

 62 67  0  0  0  0  0  0  0  0999 V2000
    0.4928   -1.4449   -0.2197 C   0  0  0  0  0  0  0  0  0  0  0  0
    1.7907   -1.0350   -0.5619 C   0  0  0  0  0  0  0  0  0  0  0  0
    2.3920   -1.5077   -1.7339 C   0  0  0  0  0  0  0  0  0  0  0  0
    1.6951   -2.3740   -2.5695 C   0  0  0  0  0  0  0  0  0  0  0  0
    0.3976   -2.7740   -2.2592 C   0  0  0  0  0  0  0  0  0  0  0  0
   -0.2006   -2.3131   -1.0837 C   0  0  0  0  0  0  0  0  0  0  0  0
   -0.1701   -0.9580    1.0287 C   0  0  0  0  0  0  0  0  0  0  0  0
   -1.2809   -0.1007    1.0191 C   0  0  0  0  0  0  0  0  0  0  0  0
   -1.8009    0.3951    2.2225 C   0  0  0  0  0  0  0  0  0  0  0  0
   -1.2303    0.0216    3.4322 C   0  0  0  0  0  0  0  0  0  0  0  0
   -0.1471   -0.8555    3.4652 C   0  0  0  0  0  0  0  0  0  0  0  0
    0.3746   -1.3557    2.2705 C   0  0  0  0  0  0  0  0  0  0  0  0
    1.4098   -2.2187    2.2164 O   0  0  0  0  0  0  0  0  0  0  0  0
    2.1981   -2.3908    3.3649 C   0  0  0  0  0  0  0  0  0  0  0  0
   -1.4547   -2.6439   -0.7060 O   0  0  0  0  0  0  0  0  0  0  0  0
   -2.3013   -3.2664   -1.6393 C   0  0  0  0  0  0  0  0  0  0  0  0
    2.6452    0.1667    0.5665 P   0  0  0  0  0  0  0  0  0  0  0  0
    5.2086   -0.6404    0.1558 O   0  0  0  0  0  0  0  0  0  0  0  0
    4.2867    0.2817   -0.2204 C   0  0  0  0  0  0  0  0  0  0  0  0
    4.8514    1.1601   -1.1034 C   0  0  0  0  0  0  0  0  0  0  0  0
    6.2071    0.7347   -1.2799 C   0  0  0  0  0  0  0  0  0  0  0  0
    6.3562   -0.3660   -0.4913 C   0  0  0  0  0  0  0  0  0  0  0  0
    2.2656    2.8538    0.4577 O   0  0  0  0  0  0  0  0  0  0  0  0
    1.9539    1.6894   -0.1623 C   0  0  0  0  0  0  0  0  0  0  0  0
    1.1637    1.9413   -1.2503 C   0  0  0  0  0  0  0  0  0  0  0  0
    0.9938    3.3622   -1.2964 C   0  0  0  0  0  0  0  0  0  0  0  0
    1.6896    3.8549   -0.2352 C   0  0  0  0  0  0  0  0  0  0  0  0
   -2.0362    0.3648   -0.6103 P   0  0  0  0  0  0  0  0  0  0  0  0
   -4.3391   -0.6632   -1.6069 O   0  0  0  0  0  0  0  0  0  0  0  0
   -3.6016   -0.5708   -0.4710 C   0  0  0  0  0  0  0  0  0  0  0  0
   -4.2169   -1.2686    0.5306 C   0  0  0  0  0  0  0  0  0  0  0  0
   -5.4147   -1.8126   -0.0363 C   0  0  0  0  0  0  0  0  0  0  0  0
   -5.4300   -1.4045   -1.3366 C   0  0  0  0  0  0  0  0  0  0  0  0
   -1.8961    3.0471   -0.1979 O   0  0  0  0  0  0  0  0  0  0  0  0
   -2.7490    1.9964   -0.2004 C   0  0  0  0  0  0  0  0  0  0  0  0
   -4.0195    2.4373    0.0543 C   0  0  0  0  0  0  0  0  0  0  0  0
   -3.9222    3.8558    0.2306 C   0  0  0  0  0  0  0  0  0  0  0  0
   -2.6040    4.1589    0.0700 C   0  0  0  0  0  0  0  0  0  0  0  0
    3.3989   -1.1860   -2.0024 H   0  0  0  0  0  0  0  0  0  0  0  0
    2.1628   -2.7391   -3.4854 H   0  0  0  0  0  0  0  0  0  0  0  0
   -0.1414   -3.4418   -2.9291 H   0  0  0  0  0  0  0  0  0  0  0  0
   -2.6538    1.0760    2.2041 H   0  0  0  0  0  0  0  0  0  0  0  0
   -1.6312    0.4137    4.3685 H   0  0  0  0  0  0  0  0  0  0  0  0
    0.2851   -1.1461    4.4213 H   0  0  0  0  0  0  0  0  0  0  0  0
    2.5636   -1.4196    3.7379 H   0  0  0  0  0  0  0  0  0  0  0  0
    1.6437   -2.9075    4.1657 H   0  0  0  0  0  0  0  0  0  0  0  0
    3.0529   -3.0084    3.0675 H   0  0  0  0  0  0  0  0  0  0  0  0
   -2.3723   -2.6691   -2.5640 H   0  0  0  0  0  0  0  0  0  0  0  0
   -1.9552   -4.2842   -1.8841 H   0  0  0  0  0  0  0  0  0  0  0  0
   -3.2912   -3.3227   -1.1698 H   0  0  0  0  0  0  0  0  0  0  0  0
    4.3467    2.0024   -1.5700 H   0  0  0  0  0  0  0  0  0  0  0  0
    6.9680    1.1869   -1.9093 H   0  0  0  0  0  0  0  0  0  0  0  0
    7.1905   -1.0324   -0.2944 H   0  0  0  0  0  0  0  0  0  0  0  0
    0.7582    1.1963   -1.9311 H   0  0  0  0  0  0  0  0  0  0  0  0
    0.4145    3.9340   -2.0152 H   0  0  0  0  0  0  0  0  0  0  0  0
    1.8558    4.8581    0.1457 H   0  0  0  0  0  0  0  0  0  0  0  0
   -3.8406   -1.3857    1.5430 H   0  0  0  0  0  0  0  0  0  0  0  0
   -6.1642   -2.4241    0.4579 H   0  0  0  0  0  0  0  0  0  0  0  0
   -6.1269   -1.5531   -2.1558 H   0  0  0  0  0  0  0  0  0  0  0  0
   -4.9097    1.8158    0.1103 H   0  0  0  0  0  0  0  0  0  0  0  0
   -4.7248    4.5539    0.4494 H   0  0  0  0  0  0  0  0  0  0  0  0
   -2.0400    5.0856    0.1168 H   0  0  0  0  0  0  0  0  0  0  0  0
  1  2  2  0  0  0  0
  1  6  1  0  0  0  0
  1  7  1  0  0  0  0
  2  3  1  0  0  0  0
  2 17  1  0  0  0  0
  3  4  2  0  0  0  0
  3 39  1  0  0  0  0
  4  5  1  0  0  0  0
  4 40  1  0  0  0  0
  5  6  2  0  0  0  0
  5 41  1  0  0  0  0
  6 15  1  0  0  0  0
  7  8  2  0  0  0  0
  7 12  1  0  0  0  0
  8  9  1  0  0  0  0
  8 28  1  0  0  0  0
  9 10  2  0  0  0  0
  9 42  1  0  0  0  0
 10 11  1  0  0  0  0
 10 43  1  0  0  0  0
 11 12  2  0  0  0  0
 11 44  1  0  0  0  0
 12 13  1  0  0  0  0
 13 14  1  0  0  0  0
 14 45  1  0  0  0  0
 14 46  1  0  0  0  0
 14 47  1  0  0  0  0
 15 16  1  0  0  0  0
 16 48  1  0  0  0  0
 16 49  1  0  0  0  0
 16 50  1  0  0  0  0
 17 19  1  0  0  0  0
 17 24  1  0  0  0  0
 18 19  1  0  0  0  0
 18 22  1  0  0  0  0
 19 20  2  0  0  0  0
 20 21  1  0  0  0  0
 20 51  1  0  0  0  0
 21 22  2  0  0  0  0
 21 52  1  0  0  0  0
 22 53  1  0  0  0  0
 23 24  1  0  0  0  0
 23 27  1  0  0  0  0
 24 25  2  0  0  0  0
 25 26  1  0  0  0  0
 25 54  1  0  0  0  0
 26 27  2  0  0  0  0
 26 55  1  0  0  0  0
 27 56  1  0  0  0  0
 28 30  1  0  0  0  0
 28 35  1  0  0  0  0
 29 30  1  0  0  0  0
 29 33  1  0  0  0  0
 30 31  2  0  0  0  0
 31 32  1  0  0  0  0
 31 57  1  0  0  0  0
 32 33  2  0  0  0  0
 32 58  1  0  0  0  0
 33 59  1  0  0  0  0
 34 35  1  0  0  0  0
 34 38  1  0  0  0  0
 35 36  2  0  0  0  0
 36 37  1  0  0  0  0
 36 60  1  0  0  0  0
 37 38  2  0  0  0  0
 37 61  1  0  0  0  0
 38 62  1  0  0  0  0
M  END
$$$$
