Title Card Required
 OpenBabel03192317473D

 60 65  0  0  0  0  0  0  0  0999 V2000
   -1.5182   -0.4864    0.7377 P   0  0  0  0  0  0  0  0  0  0  0  0
   -3.3029   -0.2959    0.3191 C   0  0  0  0  0  0  0  0  0  0  0  0
   -4.0064    0.6950    1.0231 C   0  0  0  0  0  0  0  0  0  0  0  0
   -5.3694    0.8868    0.8183 C   0  0  0  0  0  0  0  0  0  0  0  0
   -6.0621    0.0705   -0.0777 C   0  0  0  0  0  0  0  0  0  0  0  0
   -5.3804   -0.9328   -0.7617 C   0  0  0  0  0  0  0  0  0  0  0  0
   -4.0094   -1.1157   -0.5672 C   0  0  0  0  0  0  0  0  0  0  0  0
   -0.9246   -1.7590   -0.4610 C   0  0  0  0  0  0  0  0  0  0  0  0
   -0.9932   -1.5930   -1.8512 C   0  0  0  0  0  0  0  0  0  0  0  0
   -0.4681   -2.5611   -2.7040 C   0  0  0  0  0  0  0  0  0  0  0  0
    0.1539   -3.6944   -2.1762 C   0  0  0  0  0  0  0  0  0  0  0  0
    0.2446   -3.8590   -0.7959 C   0  0  0  0  0  0  0  0  0  0  0  0
   -0.2986   -2.8968    0.0570 C   0  0  0  0  0  0  0  0  0  0  0  0
    0.5775    1.2351    0.1181 C   0  0  0  0  0  0  0  0  0  0  0  0
   -0.7834    1.0239   -0.0613 C   0  0  0  0  0  0  0  0  0  0  0  0
   -1.5449    1.9503   -0.8244 C   0  0  0  0  0  0  0  0  0  0  0  0
   -0.9540    3.0541   -1.3867 C   0  0  0  0  0  0  0  0  0  0  0  0
    0.4322    3.3033   -1.2168 C   0  0  0  0  0  0  0  0  0  0  0  0
    1.0630    4.4414   -1.7901 C   0  0  0  0  0  0  0  0  0  0  0  0
    2.4064    4.6623   -1.6160 C   0  0  0  0  0  0  0  0  0  0  0  0
    3.1814    3.7522   -0.8547 C   0  0  0  0  0  0  0  0  0  0  0  0
    2.6008    2.6432   -0.2893 C   0  0  0  0  0  0  0  0  0  0  0  0
    1.2098    2.3836   -0.4547 C   0  0  0  0  0  0  0  0  0  0  0  0
    1.3906    0.2417    0.8832 C   0  0  0  0  0  0  0  0  0  0  0  0
    1.2758    0.1894    2.2651 C   0  0  0  0  0  0  0  0  0  0  0  0
    1.9727   -0.7976    3.0121 C   0  0  0  0  0  0  0  0  0  0  0  0
    2.7791   -1.7041    2.3695 C   0  0  0  0  0  0  0  0  0  0  0  0
    2.9287   -1.6855    0.9601 C   0  0  0  0  0  0  0  0  0  0  0  0
    3.7396   -2.6361    0.2818 C   0  0  0  0  0  0  0  0  0  0  0  0
    3.8414   -2.6234   -1.0864 C   0  0  0  0  0  0  0  0  0  0  0  0
    3.1310   -1.6526   -1.8368 C   0  0  0  0  0  0  0  0  0  0  0  0
    2.3461   -0.7162   -1.2108 C   0  0  0  0  0  0  0  0  0  0  0  0
    2.2237   -0.6994    0.2088 C   0  0  0  0  0  0  0  0  0  0  0  0
    0.4691    1.1027    2.8450 O   0  0  0  0  0  0  0  0  0  0  0  0
    0.0268    0.8785    4.1585 C   0  0  0  0  0  0  0  0  0  0  0  0
   -3.4720    1.3295    1.7364 H   0  0  0  0  0  0  0  0  0  0  0  0
   -5.8957    1.6708    1.3655 H   0  0  0  0  0  0  0  0  0  0  0  0
   -7.1321    0.2138   -0.2360 H   0  0  0  0  0  0  0  0  0  0  0  0
   -5.9168   -1.5813   -1.4565 H   0  0  0  0  0  0  0  0  0  0  0  0
   -3.4907   -1.9072   -1.1105 H   0  0  0  0  0  0  0  0  0  0  0  0
   -1.4548   -0.6926   -2.2662 H   0  0  0  0  0  0  0  0  0  0  0  0
   -0.5302   -2.4247   -3.7851 H   0  0  0  0  0  0  0  0  0  0  0  0
    0.5787   -4.4447   -2.8454 H   0  0  0  0  0  0  0  0  0  0  0  0
    0.7459   -4.7338   -0.3788 H   0  0  0  0  0  0  0  0  0  0  0  0
   -0.2133   -3.0141    1.1407 H   0  0  0  0  0  0  0  0  0  0  0  0
   -2.6119    1.7776   -0.9734 H   0  0  0  0  0  0  0  0  0  0  0  0
   -1.5472    3.7543   -1.9788 H   0  0  0  0  0  0  0  0  0  0  0  0
    0.4553    5.1358   -2.3742 H   0  0  0  0  0  0  0  0  0  0  0  0
    2.8811    5.5375   -2.0621 H   0  0  0  0  0  0  0  0  0  0  0  0
    4.2481    3.9356   -0.7169 H   0  0  0  0  0  0  0  0  0  0  0  0
    3.2018    1.9470    0.2971 H   0  0  0  0  0  0  0  0  0  0  0  0
    1.8737   -0.8342    4.0959 H   0  0  0  0  0  0  0  0  0  0  0  0
    3.3161   -2.4598    2.9467 H   0  0  0  0  0  0  0  0  0  0  0  0
    4.2760   -3.3813    0.8735 H   0  0  0  0  0  0  0  0  0  0  0  0
    4.4628   -3.3586   -1.5996 H   0  0  0  0  0  0  0  0  0  0  0  0
    3.2032   -1.6545   -2.9257 H   0  0  0  0  0  0  0  0  0  0  0  0
    1.7936    0.0198   -1.7970 H   0  0  0  0  0  0  0  0  0  0  0  0
   -0.4311   -0.1194    4.2568 H   0  0  0  0  0  0  0  0  0  0  0  0
    0.8439    0.9825    4.8913 H   0  0  0  0  0  0  0  0  0  0  0  0
   -0.7301    1.6434    4.3662 H   0  0  0  0  0  0  0  0  0  0  0  0
  1  2  1  0  0  0  0
  1  8  1  0  0  0  0
  1 15  1  0  0  0  0
  2  3  2  0  0  0  0
  2  7  1  0  0  0  0
  3  4  1  0  0  0  0
  3 36  1  0  0  0  0
  4  5  2  0  0  0  0
  4 37  1  0  0  0  0
  5  6  1  0  0  0  0
  5 38  1  0  0  0  0
  6  7  2  0  0  0  0
  6 39  1  0  0  0  0
  7 40  1  0  0  0  0
  8  9  2  0  0  0  0
  8 13  1  0  0  0  0
  9 10  1  0  0  0  0
  9 41  1  0  0  0  0
 10 11  2  0  0  0  0
 10 42  1  0  0  0  0
 11 12  1  0  0  0  0
 11 43  1  0  0  0  0
 12 13  2  0  0  0  0
 12 44  1  0  0  0  0
 13 45  1  0  0  0  0
 14 15  2  0  0  0  0
 14 23  1  0  0  0  0
 14 24  1  0  0  0  0
 15 16  1  0  0  0  0
 16 17  2  0  0  0  0
 16 46  1  0  0  0  0
 17 18  1  0  0  0  0
 17 47  1  0  0  0  0
 18 19  2  0  0  0  0
 18 23  1  0  0  0  0
 19 20  1  0  0  0  0
 19 48  1  0  0  0  0
 20 21  2  0  0  0  0
 20 49  1  0  0  0  0
 21 22  1  0  0  0  0
 21 50  1  0  0  0  0
 22 23  2  0  0  0  0
 22 51  1  0  0  0  0
 24 25  2  0  0  0  0
 24 33  1  0  0  0  0
 25 26  1  0  0  0  0
 25 34  1  0  0  0  0
 26 27  2  0  0  0  0
 26 52  1  0  0  0  0
 27 28  1  0  0  0  0
 27 53  1  0  0  0  0
 28 29  2  0  0  0  0
 28 33  1  0  0  0  0
 29 30  1  0  0  0  0
 29 54  1  0  0  0  0
 30 31  2  0  0  0  0
 30 55  1  0  0  0  0
 31 32  1  0  0  0  0
 31 56  1  0  0  0  0
 32 33  2  0  0  0  0
 32 57  1  0  0  0  0
 34 35  1  0  0  0  0
 35 58  1  0  0  0  0
 35 59  1  0  0  0  0
 35 60  1  0  0  0  0
M  END
$$$$
