Title Card Required
 OpenBabel03192317463D

 37 37  0  0  1  0  0  0  0  0999 V2000
    1.5114    0.2186   -0.8705 C   0  0  1  0  0  0  0  0  0  0  0  0
    2.0620    1.0447    0.3103 C   0  0  1  0  0  0  0  0  0  0  0  0
    2.4771    0.1142    1.4605 C   0  0  0  0  0  0  0  0  0  0  0  0
    3.5057   -0.9231    1.0054 C   0  0  0  0  0  0  0  0  0  0  0  0
    2.9860   -1.7327   -0.1843 C   0  0  0  0  0  0  0  0  0  0  0  0
    2.5383   -0.8179   -1.3294 C   0  0  0  0  0  0  0  0  0  0  0  0
    0.2731   -0.4562   -0.5197 N   0  0  0  0  0  0  0  0  0  0  0  0
    3.1210    1.9161   -0.1847 N   0  0  0  0  0  0  0  0  0  0  0  0
   -0.8928    0.2217   -0.3597 C   0  0  0  0  0  0  0  0  0  0  0  0
   -1.0034    1.4230   -0.4516 O   0  0  0  0  0  0  0  0  0  0  0  0
   -1.8908   -0.6392   -0.0858 O   0  0  0  0  0  0  0  0  0  0  0  0
   -3.2360   -0.1645    0.1627 C   0  0  0  0  0  0  0  0  0  0  0  0
   -3.7861    0.5427   -1.0730 C   0  0  0  0  0  0  0  0  0  0  0  0
   -4.0115   -1.4482    0.4311 C   0  0  0  0  0  0  0  0  0  0  0  0
   -3.2541    0.7395    1.3929 C   0  0  0  0  0  0  0  0  0  0  0  0
    1.3037    0.9315   -1.6825 H   0  0  0  0  0  0  0  0  0  0  0  0
    1.2394    1.6949    0.6411 H   0  0  0  0  0  0  0  0  0  0  0  0
    2.8734    0.7151    2.2944 H   0  0  0  0  0  0  0  0  0  0  0  0
    1.5816   -0.4062    1.8391 H   0  0  0  0  0  0  0  0  0  0  0  0
    4.4420   -0.4153    0.7140 H   0  0  0  0  0  0  0  0  0  0  0  0
    3.7718   -1.5913    1.8377 H   0  0  0  0  0  0  0  0  0  0  0  0
    3.7557   -2.4321   -0.5433 H   0  0  0  0  0  0  0  0  0  0  0  0
    2.1411   -2.3598    0.1516 H   0  0  0  0  0  0  0  0  0  0  0  0
    2.1261   -1.4033   -2.1660 H   0  0  0  0  0  0  0  0  0  0  0  0
    3.4093   -0.2741   -1.7281 H   0  0  0  0  0  0  0  0  0  0  0  0
    0.2376   -1.4638   -0.4400 H   0  0  0  0  0  0  0  0  0  0  0  0
    3.3211    2.6470    0.4940 H   0  0  0  0  0  0  0  0  0  0  0  0
    3.9898    1.4017   -0.3160 H   0  0  0  0  0  0  0  0  0  0  0  0
   -3.7077   -0.1179   -1.9489 H   0  0  0  0  0  0  0  0  0  0  0  0
   -4.8478    0.7809   -0.9148 H   0  0  0  0  0  0  0  0  0  0  0  0
   -3.2361    1.4693   -1.2722 H   0  0  0  0  0  0  0  0  0  0  0  0
   -3.5827   -1.9774    1.2935 H   0  0  0  0  0  0  0  0  0  0  0  0
   -5.0646   -1.2181    0.6434 H   0  0  0  0  0  0  0  0  0  0  0  0
   -3.9636   -2.1111   -0.4442 H   0  0  0  0  0  0  0  0  0  0  0  0
   -2.8013    0.2165    2.2480 H   0  0  0  0  0  0  0  0  0  0  0  0
   -2.7002    1.6663    1.2039 H   0  0  0  0  0  0  0  0  0  0  0  0
   -4.2938    0.9876    1.6502 H   0  0  0  0  0  0  0  0  0  0  0  0
  1  2  1  0  0  0  0
  1  6  1  0  0  0  0
  1  7  1  0  0  0  0
  1 16  1  6  0  0  0
  2  3  1  0  0  0  0
  2  8  1  0  0  0  0
  2 17  1  1  0  0  0
  3  4  1  0  0  0  0
  3 18  1  0  0  0  0
  3 19  1  0  0  0  0
  4  5  1  0  0  0  0
  4 20  1  0  0  0  0
  4 21  1  0  0  0  0
  5  6  1  0  0  0  0
  5 22  1  0  0  0  0
  5 23  1  0  0  0  0
  6 24  1  0  0  0  0
  6 25  1  0  0  0  0
  7  9  1  0  0  0  0
  7 26  1  0  0  0  0
  8 27  1  0  0  0  0
  8 28  1  0  0  0  0
  9 10  2  0  0  0  0
  9 11  1  0  0  0  0
 11 12  1  0  0  0  0
 12 13  1  0  0  0  0
 12 14  1  0  0  0  0
 12 15  1  0  0  0  0
 13 29  1  0  0  0  0
 13 30  1  0  0  0  0
 13 31  1  0  0  0  0
 14 32  1  0  0  0  0
 14 33  1  0  0  0  0
 14 34  1  0  0  0  0
 15 35  1  0  0  0  0
 15 36  1  0  0  0  0
 15 37  1  0  0  0  0
M  END
$$$$
