Title Card Required
 OpenBabel03192317553D

 53 57  0  0  1  0  0  0  0  0999 V2000
   -3.5233   -0.5724    0.4873 C   0  0  1  0  0  0  0  0  0  0  0  0
   -1.7115   -0.4527    1.0168 P   0  0  1  0  0  0  0  0  0  0  0  0
   -1.3595    0.0809   -0.7085 C   0  0  0  0  0  0  0  0  0  0  0  0
   -0.1350    0.1953   -1.3829 C   0  0  0  0  0  0  0  0  0  0  0  0
    1.1547   -0.1449   -0.7105 C   0  0  0  0  0  0  0  0  0  0  0  0
    2.0982    0.8695   -0.4370 C   0  0  0  0  0  0  0  0  0  0  0  0
    1.8730    2.2475   -0.7747 C   0  0  0  0  0  0  0  0  0  0  0  0
    2.7989    3.2083   -0.4811 C   0  0  0  0  0  0  0  0  0  0  0  0
    4.0209    2.8694    0.1735 C   0  0  0  0  0  0  0  0  0  0  0  0
    4.2697    1.5744    0.5235 C   0  0  0  0  0  0  0  0  0  0  0  0
    3.3238    0.5363    0.2375 C   0  0  0  0  0  0  0  0  0  0  0  0
    3.5673   -0.7872    0.6104 C   0  0  0  0  0  0  0  0  0  0  0  0
    2.6528   -1.8035    0.3252 C   0  0  0  0  0  0  0  0  0  0  0  0
    1.4290   -1.4847   -0.3583 C   0  0  0  0  0  0  0  0  0  0  0  0
    0.5371   -2.5638   -0.6760 C   0  0  0  0  0  0  0  0  0  0  0  0
    0.8282   -3.8491   -0.3180 C   0  0  0  0  0  0  0  0  0  0  0  0
    2.0318   -4.1566    0.3848 C   0  0  0  0  0  0  0  0  0  0  0  0
    2.9158   -3.1638    0.6916 C   0  0  0  0  0  0  0  0  0  0  0  0
   -0.1377    0.6279   -2.7168 C   0  0  0  0  0  0  0  0  0  0  0  0
   -1.3352    0.9393   -3.3619 C   0  0  0  0  0  0  0  0  0  0  0  0
   -2.5587    0.8108   -2.7084 C   0  0  0  0  0  0  0  0  0  0  0  0
   -2.5543    0.3673   -1.3872 C   0  0  0  0  0  0  0  0  0  0  0  0
   -3.7060    0.2013   -0.7041 O   0  0  0  0  0  0  0  0  0  0  0  0
   -3.9299   -2.0111    0.2122 C   0  0  0  0  0  0  0  0  0  0  0  0
   -1.7187    1.1945    1.9616 C   0  0  0  0  0  0  0  0  0  0  0  0
   -2.3658    0.8976    3.3191 C   0  0  0  0  0  0  0  0  0  0  0  0
   -0.2567    1.5961    2.1728 C   0  0  0  0  0  0  0  0  0  0  0  0
   -2.4660    2.3226    1.2517 C   0  0  0  0  0  0  0  0  0  0  0  0
   -4.1725   -0.1289    1.2565 H   0  0  0  0  0  0  0  0  0  0  0  0
    0.9397    2.5239   -1.2661 H   0  0  0  0  0  0  0  0  0  0  0  0
    2.6024    4.2485   -0.7454 H   0  0  0  0  0  0  0  0  0  0  0  0
    4.7491    3.6507    0.3952 H   0  0  0  0  0  0  0  0  0  0  0  0
    5.1965    1.3018    1.0326 H   0  0  0  0  0  0  0  0  0  0  0  0
    4.4956   -1.0337    1.1316 H   0  0  0  0  0  0  0  0  0  0  0  0
   -0.3810   -2.3436   -1.2214 H   0  0  0  0  0  0  0  0  0  0  0  0
    0.1370   -4.6534   -0.5741 H   0  0  0  0  0  0  0  0  0  0  0  0
    2.2435   -5.1892    0.6661 H   0  0  0  0  0  0  0  0  0  0  0  0
    3.8460   -3.3864    1.2183 H   0  0  0  0  0  0  0  0  0  0  0  0
    0.8120    0.7138   -3.2474 H   0  0  0  0  0  0  0  0  0  0  0  0
   -1.3154    1.2727   -4.4009 H   0  0  0  0  0  0  0  0  0  0  0  0
   -3.5060    1.0298   -3.2005 H   0  0  0  0  0  0  0  0  0  0  0  0
   -4.9552   -2.0469   -0.1820 H   0  0  0  0  0  0  0  0  0  0  0  0
   -3.2552   -2.4660   -0.5294 H   0  0  0  0  0  0  0  0  0  0  0  0
   -3.8759   -2.6064    1.1338 H   0  0  0  0  0  0  0  0  0  0  0  0
   -1.8335    0.0937    3.8499 H   0  0  0  0  0  0  0  0  0  0  0  0
   -2.3354    1.8011    3.9493 H   0  0  0  0  0  0  0  0  0  0  0  0
   -3.4220    0.6026    3.2196 H   0  0  0  0  0  0  0  0  0  0  0  0
    0.2260    1.8611    1.2218 H   0  0  0  0  0  0  0  0  0  0  0  0
   -0.2056    2.4792    2.8309 H   0  0  0  0  0  0  0  0  0  0  0  0
    0.3272    0.7866    2.6383 H   0  0  0  0  0  0  0  0  0  0  0  0
   -2.0051    2.5556    0.2797 H   0  0  0  0  0  0  0  0  0  0  0  0
   -3.5230    2.0758    1.0750 H   0  0  0  0  0  0  0  0  0  0  0  0
   -2.4286    3.2355    1.8693 H   0  0  0  0  0  0  0  0  0  0  0  0
  1  2  1  0  0  0  0
  1 23  1  0  0  0  0
  1 24  1  0  0  0  0
  1 29  1  1  0  0  0
  2  3  1  0  0  0  0
  2 25  1  1  0  0  0
  3  4  2  0  0  0  0
  3 22  1  0  0  0  0
  4  5  1  0  0  0  0
  4 19  1  0  0  0  0
  5  6  2  0  0  0  0
  5 14  1  0  0  0  0
  6  7  1  0  0  0  0
  6 11  1  0  0  0  0
  7  8  2  0  0  0  0
  7 30  1  0  0  0  0
  8  9  1  0  0  0  0
  8 31  1  0  0  0  0
  9 10  2  0  0  0  0
  9 32  1  0  0  0  0
 10 11  1  0  0  0  0
 10 33  1  0  0  0  0
 11 12  2  0  0  0  0
 12 13  1  0  0  0  0
 12 34  1  0  0  0  0
 13 14  2  0  0  0  0
 13 18  1  0  0  0  0
 14 15  1  0  0  0  0
 15 16  2  0  0  0  0
 15 35  1  0  0  0  0
 16 17  1  0  0  0  0
 16 36  1  0  0  0  0
 17 18  2  0  0  0  0
 17 37  1  0  0  0  0
 18 38  1  0  0  0  0
 19 20  2  0  0  0  0
 19 39  1  0  0  0  0
 20 21  1  0  0  0  0
 20 40  1  0  0  0  0
 21 22  2  0  0  0  0
 21 41  1  0  0  0  0
 22 23  1  0  0  0  0
 24 42  1  0  0  0  0
 24 43  1  0  0  0  0
 24 44  1  0  0  0  0
 25 26  1  0  0  0  0
 25 27  1  0  0  0  0
 25 28  1  0  0  0  0
 26 45  1  0  0  0  0
 26 46  1  0  0  0  0
 26 47  1  0  0  0  0
 27 48  1  0  0  0  0
 27 49  1  0  0  0  0
 27 50  1  0  0  0  0
 28 51  1  0  0  0  0
 28 52  1  0  0  0  0
 28 53  1  0  0  0  0
M  END
$$$$
