Title Card Required
 OpenBabel03192317433D

 55 57  0  0  1  0  0  0  0  0999 V2000
   -5.1758    0.1494   -0.5683 C   0  0  0  0  0  0  0  0  0  0  0  0
   -4.2061   -1.9404    0.4491 C   0  0  0  0  0  0  0  0  0  0  0  0
   -2.6953   -0.1841   -0.4923 C   0  0  2  0  0  0  0  0  0  0  0  0
   -4.0122   -0.4413    0.2278 C   0  0  0  0  0  0  0  0  0  0  0  0
   -1.2952    1.5063   -1.1461 C   0  0  0  0  0  0  0  0  0  0  0  0
   -0.9706    2.6677   -1.8421 C   0  0  0  0  0  0  0  0  0  0  0  0
    0.3755    2.9138   -2.1108 C   0  0  0  0  0  0  0  0  0  0  0  0
    1.3680    2.0192   -1.7112 C   0  0  0  0  0  0  0  0  0  0  0  0
    1.0360    0.8505   -1.0134 C   0  0  0  0  0  0  0  0  0  0  0  0
   -0.3103    0.6098   -0.7120 C   0  0  0  0  0  0  0  0  0  0  0  0
    2.0825   -0.1197   -0.5874 C   0  0  0  0  0  0  0  0  0  0  0  0
    3.1149    0.2648    0.2851 C   0  0  0  0  0  0  0  0  0  0  0  0
    4.0466   -0.6692    0.7547 C   0  0  0  0  0  0  0  0  0  0  0  0
    3.9427   -1.9936    0.3403 C   0  0  0  0  0  0  0  0  0  0  0  0
    2.9440   -2.4035   -0.5359 C   0  0  0  0  0  0  0  0  0  0  0  0
    2.0232   -1.4597   -1.0111 C   0  0  0  0  0  0  0  0  0  0  0  0
   -1.0609   -0.7384    0.2880 P   0  0  1  0  0  0  0  0  0  0  0  0
   -2.5779    1.1966   -0.8395 O   0  0  0  0  0  0  0  0  0  0  0  0
    3.1121    1.5630    0.6676 O   0  0  0  0  0  0  0  0  0  0  0  0
    4.0489    1.9849    1.6226 C   0  0  0  0  0  0  0  0  0  0  0  0
    1.0467   -1.7618   -1.8904 O   0  0  0  0  0  0  0  0  0  0  0  0
    0.7409   -3.1118   -2.1188 C   0  0  0  0  0  0  0  0  0  0  0  0
   -1.0124    0.0636    2.0159 C   0  0  0  0  0  0  0  0  0  0  0  0
   -1.7775   -0.8572    2.9740 C   0  0  0  0  0  0  0  0  0  0  0  0
    0.4685    0.0780    2.4205 C   0  0  0  0  0  0  0  0  0  0  0  0
   -1.5553    1.4909    2.0904 C   0  0  0  0  0  0  0  0  0  0  0  0
   -5.2391   -0.3222   -1.5622 H   0  0  0  0  0  0  0  0  0  0  0  0
   -5.0456    1.2291   -0.7124 H   0  0  0  0  0  0  0  0  0  0  0  0
   -6.1286   -0.0263   -0.0481 H   0  0  0  0  0  0  0  0  0  0  0  0
   -4.2467   -2.4677   -0.5173 H   0  0  0  0  0  0  0  0  0  0  0  0
   -3.3891   -2.3833    1.0369 H   0  0  0  0  0  0  0  0  0  0  0  0
   -5.1517   -2.1337    0.9755 H   0  0  0  0  0  0  0  0  0  0  0  0
   -2.7128   -0.7552   -1.4448 H   0  0  0  0  0  0  0  0  0  0  0  0
   -3.9772    0.0639    1.2063 H   0  0  0  0  0  0  0  0  0  0  0  0
   -1.7601    3.3472   -2.1627 H   0  0  0  0  0  0  0  0  0  0  0  0
    0.6545    3.8161   -2.6577 H   0  0  0  0  0  0  0  0  0  0  0  0
    2.4151    2.2206   -1.9389 H   0  0  0  0  0  0  0  0  0  0  0  0
    4.8384   -0.3771    1.4409 H   0  0  0  0  0  0  0  0  0  0  0  0
    4.6634   -2.7253    0.7090 H   0  0  0  0  0  0  0  0  0  0  0  0
    2.8921   -3.4426   -0.8539 H   0  0  0  0  0  0  0  0  0  0  0  0
    3.9355    1.4296    2.5688 H   0  0  0  0  0  0  0  0  0  0  0  0
    5.0818    1.8651    1.2567 H   0  0  0  0  0  0  0  0  0  0  0  0
    3.8539    3.0478    1.8027 H   0  0  0  0  0  0  0  0  0  0  0  0
    1.5602   -3.6325   -2.6418 H   0  0  0  0  0  0  0  0  0  0  0  0
    0.5208   -3.6314   -1.1718 H   0  0  0  0  0  0  0  0  0  0  0  0
   -0.1517   -3.1265   -2.7545 H   0  0  0  0  0  0  0  0  0  0  0  0
   -1.3939   -1.8885    2.9277 H   0  0  0  0  0  0  0  0  0  0  0  0
   -1.6552   -0.4962    4.0084 H   0  0  0  0  0  0  0  0  0  0  0  0
   -2.8554   -0.8821    2.7584 H   0  0  0  0  0  0  0  0  0  0  0  0
    1.0343    0.8126    1.8285 H   0  0  0  0  0  0  0  0  0  0  0  0
    0.5516    0.3633    3.4828 H   0  0  0  0  0  0  0  0  0  0  0  0
    0.9426   -0.9088    2.2919 H   0  0  0  0  0  0  0  0  0  0  0  0
   -0.9976    2.1625    1.4211 H   0  0  0  0  0  0  0  0  0  0  0  0
   -2.6187    1.5548    1.8240 H   0  0  0  0  0  0  0  0  0  0  0  0
   -1.4389    1.8710    3.1196 H   0  0  0  0  0  0  0  0  0  0  0  0
  1  4  1  0  0  0  0
  1 27  1  0  0  0  0
  1 28  1  0  0  0  0
  1 29  1  0  0  0  0
  2  4  1  0  0  0  0
  2 30  1  0  0  0  0
  2 31  1  0  0  0  0
  2 32  1  0  0  0  0
  3  4  1  0  0  0  0
  3 17  1  0  0  0  0
  3 18  1  0  0  0  0
  3 33  1  6  0  0  0
  4 34  1  0  0  0  0
  5  6  2  0  0  0  0
  5 10  1  0  0  0  0
  5 18  1  0  0  0  0
  6  7  1  0  0  0  0
  6 35  1  0  0  0  0
  7  8  2  0  0  0  0
  7 36  1  0  0  0  0
  8  9  1  0  0  0  0
  8 37  1  0  0  0  0
  9 10  2  0  0  0  0
  9 11  1  0  0  0  0
 10 17  1  0  0  0  0
 11 12  2  0  0  0  0
 11 16  1  0  0  0  0
 12 13  1  0  0  0  0
 12 19  1  0  0  0  0
 13 14  2  0  0  0  0
 13 38  1  0  0  0  0
 14 15  1  0  0  0  0
 14 39  1  0  0  0  0
 15 16  2  0  0  0  0
 15 40  1  0  0  0  0
 16 21  1  0  0  0  0
 17 23  1  1  0  0  0
 19 20  1  0  0  0  0
 20 41  1  0  0  0  0
 20 42  1  0  0  0  0
 20 43  1  0  0  0  0
 21 22  1  0  0  0  0
 22 44  1  0  0  0  0
 22 45  1  0  0  0  0
 22 46  1  0  0  0  0
 23 24  1  0  0  0  0
 23 25  1  0  0  0  0
 23 26  1  0  0  0  0
 24 47  1  0  0  0  0
 24 48  1  0  0  0  0
 24 49  1  0  0  0  0
 25 50  1  0  0  0  0
 25 51  1  0  0  0  0
 25 52  1  0  0  0  0
 26 53  1  0  0  0  0
 26 54  1  0  0  0  0
 26 55  1  0  0  0  0
M  END
$$$$
