Title Card Required
 OpenBabel03192317513D

 54 57  0  0  1  0  0  0  0  0999 V2000
   -3.1620    2.1099   -0.6377 C   0  0  0  0  0  0  0  0  0  0  0  0
   -3.8403    0.4088    1.0597 C   0  0  0  0  0  0  0  0  0  0  0  0
   -5.3128    0.8659   -0.9248 C   0  0  0  0  0  0  0  0  0  0  0  0
   -3.8672    0.7674   -0.4284 C   0  0  0  0  0  0  0  0  0  0  0  0
    0.5710    2.7003   -0.2969 C   0  0  0  0  0  0  0  0  0  0  0  0
    0.1110    3.7764    0.4599 C   0  0  0  0  0  0  0  0  0  0  0  0
   -0.4397    3.5573    1.7228 C   0  0  0  0  0  0  0  0  0  0  0  0
   -0.5155    2.2590    2.2250 C   0  0  0  0  0  0  0  0  0  0  0  0
   -0.0414    1.1835    1.4723 C   0  0  0  0  0  0  0  0  0  0  0  0
    0.5031    1.3929    0.2020 C   0  0  0  0  0  0  0  0  0  0  0  0
    3.5411    1.0316    0.3064 C   0  0  0  0  0  0  0  0  0  0  0  0
    4.9270    1.1792    0.3498 C   0  0  0  0  0  0  0  0  0  0  0  0
    5.7261    0.6093   -0.6414 C   0  0  0  0  0  0  0  0  0  0  0  0
    5.1336   -0.1036   -1.6829 C   0  0  0  0  0  0  0  0  0  0  0  0
    3.7468   -0.2412   -1.7306 C   0  0  0  0  0  0  0  0  0  0  0  0
    2.9344    0.3128   -0.7326 C   0  0  0  0  0  0  0  0  0  0  0  0
    1.1072    0.0478   -0.9050 P   0  0  0  0  0  0  0  0  0  0  0  0
   -0.4597   -3.3413    0.9692 C   0  0  0  0  0  0  0  0  0  0  0  0
    0.6472   -3.8996    1.5983 C   0  0  0  0  0  0  0  0  0  0  0  0
    1.8765   -3.2537    1.5086 C   0  0  0  0  0  0  0  0  0  0  0  0
    1.9944   -2.0625    0.7935 C   0  0  0  0  0  0  0  0  0  0  0  0
    0.8945   -1.4733    0.1544 C   0  0  0  0  0  0  0  0  0  0  0  0
   -0.3501   -2.1408    0.2564 C   0  0  0  0  0  0  0  0  0  0  0  0
   -3.6719   -1.7505   -1.1093 C   0  0  0  0  0  0  0  0  0  0  0  0
   -3.1235   -0.3092   -1.2571 C   0  0  2  0  0  0  0  0  0  0  0  0
   -1.7313   -0.4354   -0.8314 N   0  0  0  0  0  0  0  0  0  0  0  0
   -1.5782   -1.6028   -0.3592 C   0  0  0  0  0  0  0  0  0  0  0  0
   -2.6457   -2.4386   -0.3935 O   0  0  0  0  0  0  0  0  0  0  0  0
   -2.1151    2.0508   -0.3109 H   0  0  0  0  0  0  0  0  0  0  0  0
   -3.1742    2.3979   -1.7009 H   0  0  0  0  0  0  0  0  0  0  0  0
   -3.6666    2.9024   -0.0638 H   0  0  0  0  0  0  0  0  0  0  0  0
   -4.3889    1.1654    1.6409 H   0  0  0  0  0  0  0  0  0  0  0  0
   -4.3065   -0.5690    1.2600 H   0  0  0  0  0  0  0  0  0  0  0  0
   -2.8048    0.3831    1.4292 H   0  0  0  0  0  0  0  0  0  0  0  0
   -5.8413    1.6711   -0.3929 H   0  0  0  0  0  0  0  0  0  0  0  0
   -5.3458    1.0953   -2.0015 H   0  0  0  0  0  0  0  0  0  0  0  0
   -5.8751   -0.0651   -0.7549 H   0  0  0  0  0  0  0  0  0  0  0  0
    0.9871    2.8763   -1.2926 H   0  0  0  0  0  0  0  0  0  0  0  0
    0.1734    4.7886    0.0567 H   0  0  0  0  0  0  0  0  0  0  0  0
   -0.8094    4.3969    2.3134 H   0  0  0  0  0  0  0  0  0  0  0  0
   -0.9467    2.0797    3.2118 H   0  0  0  0  0  0  0  0  0  0  0  0
   -0.1065    0.1706    1.8768 H   0  0  0  0  0  0  0  0  0  0  0  0
    2.9251    1.4772    1.0906 H   0  0  0  0  0  0  0  0  0  0  0  0
    5.3866    1.7415    1.1647 H   0  0  0  0  0  0  0  0  0  0  0  0
    6.8105    0.7264   -0.6051 H   0  0  0  0  0  0  0  0  0  0  0  0
    5.7519   -0.5452   -2.4662 H   0  0  0  0  0  0  0  0  0  0  0  0
    3.2818   -0.7866   -2.5564 H   0  0  0  0  0  0  0  0  0  0  0  0
   -1.4333   -3.8277    1.0200 H   0  0  0  0  0  0  0  0  0  0  0  0
    0.5492   -4.8338    2.1527 H   0  0  0  0  0  0  0  0  0  0  0  0
    2.7572   -3.6760    1.9952 H   0  0  0  0  0  0  0  0  0  0  0  0
    2.9722   -1.5852    0.7341 H   0  0  0  0  0  0  0  0  0  0  0  0
   -4.6045   -1.8161   -0.5334 H   0  0  0  0  0  0  0  0  0  0  0  0
   -3.8158   -2.2490   -2.0788 H   0  0  0  0  0  0  0  0  0  0  0  0
   -3.1488    0.0144   -2.3104 H   0  0  0  0  0  0  0  0  0  0  0  0
  1  4  1  0  0  0  0
  1 29  1  0  0  0  0
  1 30  1  0  0  0  0
  1 31  1  0  0  0  0
  2  4  1  0  0  0  0
  2 32  1  0  0  0  0
  2 33  1  0  0  0  0
  2 34  1  0  0  0  0
  3  4  1  0  0  0  0
  3 35  1  0  0  0  0
  3 36  1  0  0  0  0
  3 37  1  0  0  0  0
  4 25  1  0  0  0  0
  5  6  2  0  0  0  0
  5 10  1  0  0  0  0
  5 38  1  0  0  0  0
  6  7  1  0  0  0  0
  6 39  1  0  0  0  0
  7  8  2  0  0  0  0
  7 40  1  0  0  0  0
  8  9  1  0  0  0  0
  8 41  1  0  0  0  0
  9 10  2  0  0  0  0
  9 42  1  0  0  0  0
 10 17  1  0  0  0  0
 11 12  2  0  0  0  0
 11 16  1  0  0  0  0
 11 43  1  0  0  0  0
 12 13  1  0  0  0  0
 12 44  1  0  0  0  0
 13 14  2  0  0  0  0
 13 45  1  0  0  0  0
 14 15  1  0  0  0  0
 14 46  1  0  0  0  0
 15 16  2  0  0  0  0
 15 47  1  0  0  0  0
 16 17  1  0  0  0  0
 17 22  1  0  0  0  0
 18 19  2  0  0  0  0
 18 23  1  0  0  0  0
 18 48  1  0  0  0  0
 19 20  1  0  0  0  0
 19 49  1  0  0  0  0
 20 21  2  0  0  0  0
 20 50  1  0  0  0  0
 21 22  1  0  0  0  0
 21 51  1  0  0  0  0
 22 23  2  0  0  0  0
 23 27  1  0  0  0  0
 24 25  1  0  0  0  0
 24 28  1  0  0  0  0
 24 52  1  0  0  0  0
 24 53  1  0  0  0  0
 25 26  1  0  0  0  0
 25 54  1  6  0  0  0
 26 27  2  0  0  0  0
 27 28  1  0  0  0  0
M  END
$$$$
