Title Card Required
 OpenBabel03192317523D

 36 37  0  0  1  0  0  0  0  0999 V2000
    1.1698   -1.8327    0.0447 O   0  0  0  0  0  0  0  0  0  0  0  0
    0.5549   -0.6333   -0.0037 C   0  0  0  0  0  0  0  0  0  0  0  0
    1.2265    0.4153    0.2103 N   0  0  0  0  0  0  0  0  0  0  0  0
    2.5989   -0.0211    0.4795 C   0  0  1  0  0  0  0  0  0  0  0  0
    2.5613   -1.5456    0.2096 C   0  0  0  0  0  0  0  0  0  0  0  0
   -2.8911   -1.6419   -0.3166 C   0  0  0  0  0  0  0  0  0  0  0  0
   -2.9702   -0.1651   -0.7714 C   0  0  2  0  0  0  0  0  0  0  0  0
   -1.5676    0.2604   -0.8189 N   0  0  0  0  0  0  0  0  0  0  0  0
   -0.9017   -0.6704   -0.2838 C   0  0  0  0  0  0  0  0  0  0  0  0
   -1.5337   -1.7961    0.1078 O   0  0  0  0  0  0  0  0  0  0  0  0
    3.6285    0.7386   -0.3602 C   0  0  0  0  0  0  0  0  0  0  0  0
   -3.7672    0.7457    0.1803 C   0  0  0  0  0  0  0  0  0  0  0  0
    3.4961    2.2429   -0.1478 C   0  0  0  0  0  0  0  0  0  0  0  0
    5.0393    0.2514   -0.0366 C   0  0  0  0  0  0  0  0  0  0  0  0
   -3.1413    0.7807    1.5735 C   0  0  0  0  0  0  0  0  0  0  0  0
   -3.8877    2.1507   -0.4039 C   0  0  0  0  0  0  0  0  0  0  0  0
    2.8131    0.1901    1.5435 H   0  0  0  0  0  0  0  0  0  0  0  0
    3.0831   -1.8104   -0.7248 H   0  0  0  0  0  0  0  0  0  0  0  0
    2.9548   -2.1612    1.0278 H   0  0  0  0  0  0  0  0  0  0  0  0
   -3.5550   -1.8771    0.5269 H   0  0  0  0  0  0  0  0  0  0  0  0
   -3.0822   -2.3523   -1.1339 H   0  0  0  0  0  0  0  0  0  0  0  0
   -3.4072   -0.0808   -1.7782 H   0  0  0  0  0  0  0  0  0  0  0  0
    3.4046    0.5113   -1.4181 H   0  0  0  0  0  0  0  0  0  0  0  0
   -4.7770    0.3035    0.2543 H   0  0  0  0  0  0  0  0  0  0  0  0
    3.7136    2.5020    0.9011 H   0  0  0  0  0  0  0  0  0  0  0  0
    4.2049    2.7914   -0.7846 H   0  0  0  0  0  0  0  0  0  0  0  0
    2.4763    2.5773   -0.3752 H   0  0  0  0  0  0  0  0  0  0  0  0
    5.1605   -0.8278   -0.2151 H   0  0  0  0  0  0  0  0  0  0  0  0
    5.7842    0.7755   -0.6519 H   0  0  0  0  0  0  0  0  0  0  0  0
    5.2796    0.4492    1.0206 H   0  0  0  0  0  0  0  0  0  0  0  0
   -2.1587    1.2742    1.5331 H   0  0  0  0  0  0  0  0  0  0  0  0
   -3.7786    1.3429    2.2706 H   0  0  0  0  0  0  0  0  0  0  0  0
   -2.9950   -0.2281    1.9900 H   0  0  0  0  0  0  0  0  0  0  0  0
   -4.3995    2.1359   -1.3775 H   0  0  0  0  0  0  0  0  0  0  0  0
   -4.4549    2.8093    0.2696 H   0  0  0  0  0  0  0  0  0  0  0  0
   -2.8862    2.5794   -0.5521 H   0  0  0  0  0  0  0  0  0  0  0  0
  1  2  1  0  0  0  0
  1  5  1  0  0  0  0
  2  3  2  0  0  0  0
  2  9  1  0  0  0  0
  3  4  1  0  0  0  0
  4  5  1  0  0  0  0
  4 11  1  0  0  0  0
  4 17  1  1  0  0  0
  5 18  1  0  0  0  0
  5 19  1  0  0  0  0
  6  7  1  0  0  0  0
  6 10  1  0  0  0  0
  6 20  1  0  0  0  0
  6 21  1  0  0  0  0
  7  8  1  0  0  0  0
  7 12  1  0  0  0  0
  7 22  1  6  0  0  0
  8  9  2  0  0  0  0
  9 10  1  0  0  0  0
 11 13  1  0  0  0  0
 11 14  1  0  0  0  0
 11 23  1  0  0  0  0
 12 15  1  0  0  0  0
 12 16  1  0  0  0  0
 12 24  1  0  0  0  0
 13 25  1  0  0  0  0
 13 26  1  0  0  0  0
 13 27  1  0  0  0  0
 14 28  1  0  0  0  0
 14 29  1  0  0  0  0
 14 30  1  0  0  0  0
 15 31  1  0  0  0  0
 15 32  1  0  0  0  0
 15 33  1  0  0  0  0
 16 34  1  0  0  0  0
 16 35  1  0  0  0  0
 16 36  1  0  0  0  0
M  END
$$$$
