Title Card Required
 OpenBabel03192317493D

 59 62  0  0  1  0  0  0  0  0999 V2000
    0.7796    0.1860   -0.2600 C   0  0  0  0  0  0  0  0  0  0  0  0
    0.0455    1.3454    0.3622 C   0  0  0  0  0  0  0  0  0  0  0  0
   -1.4167    1.1797    0.0458 C   0  0  0  0  0  0  0  0  0  0  0  0
    0.2383    1.2809    1.8970 C   0  0  0  0  0  0  0  0  0  0  0  0
    1.6967    1.3281    2.3413 C   0  0  0  0  0  0  0  0  0  0  0  0
    1.8330    1.2623    3.8583 C   0  0  0  0  0  0  0  0  0  0  0  0
    0.5372    2.6887   -0.2158 C   0  0  0  0  0  0  0  0  0  0  0  0
    0.0529    3.0004   -1.6301 C   0  0  0  0  0  0  0  0  0  0  0  0
    0.7202    4.2495   -2.1929 C   0  0  0  0  0  0  0  0  0  0  0  0
    0.4799   -1.0266    0.2588 O   0  0  0  0  0  0  0  0  0  0  0  0
    1.1318   -1.9783   -0.5801 C   0  0  0  0  0  0  0  0  0  0  0  0
    2.1726   -1.1177   -1.3414 C   0  0  1  0  0  0  0  0  0  0  0  0
    1.6751    0.2451   -1.1548 N   0  0  0  0  0  0  0  0  0  0  0  0
   -1.9183    0.3768   -0.7945 N   0  0  0  0  0  0  0  0  0  0  0  0
   -3.3656    0.5602   -0.7585 C   0  0  2  0  0  0  0  0  0  0  0  0
   -3.5681    1.7236    0.2605 C   0  0  0  0  0  0  0  0  0  0  0  0
   -2.2446    2.0103    0.7174 O   0  0  0  0  0  0  0  0  0  0  0  0
    3.5923   -1.2836   -0.8244 C   0  0  0  0  0  0  0  0  0  0  0  0
   -4.0954   -0.7084   -0.3628 C   0  0  0  0  0  0  0  0  0  0  0  0
    4.2202   -2.5295   -0.9442 C   0  0  0  0  0  0  0  0  0  0  0  0
    5.5127   -2.7252   -0.4660 C   0  0  0  0  0  0  0  0  0  0  0  0
    6.2003   -1.6710    0.1375 C   0  0  0  0  0  0  0  0  0  0  0  0
    5.5861   -0.4264    0.2518 C   0  0  0  0  0  0  0  0  0  0  0  0
    4.2900   -0.2312   -0.2289 C   0  0  0  0  0  0  0  0  0  0  0  0
   -3.4243   -1.7641    0.2595 C   0  0  0  0  0  0  0  0  0  0  0  0
   -4.1270   -2.9002    0.6627 C   0  0  0  0  0  0  0  0  0  0  0  0
   -5.5009   -2.9932    0.4479 C   0  0  0  0  0  0  0  0  0  0  0  0
   -6.1744   -1.9436   -0.1777 C   0  0  0  0  0  0  0  0  0  0  0  0
   -5.4731   -0.8103   -0.5826 C   0  0  0  0  0  0  0  0  0  0  0  0
   -0.3249    2.1172    2.3386 H   0  0  0  0  0  0  0  0  0  0  0  0
   -0.2228    0.3515    2.2674 H   0  0  0  0  0  0  0  0  0  0  0  0
    2.2459    0.4867    1.8863 H   0  0  0  0  0  0  0  0  0  0  0  0
    2.1715    2.2494    1.9678 H   0  0  0  0  0  0  0  0  0  0  0  0
    1.3954    0.3330    4.2522 H   0  0  0  0  0  0  0  0  0  0  0  0
    2.8865    1.2952    4.1684 H   0  0  0  0  0  0  0  0  0  0  0  0
    1.3128    2.1045    4.3391 H   0  0  0  0  0  0  0  0  0  0  0  0
    0.2122    3.4896    0.4688 H   0  0  0  0  0  0  0  0  0  0  0  0
    1.6370    2.6736   -0.2109 H   0  0  0  0  0  0  0  0  0  0  0  0
    0.2597    2.1362   -2.2777 H   0  0  0  0  0  0  0  0  0  0  0  0
   -1.0413    3.1385   -1.6209 H   0  0  0  0  0  0  0  0  0  0  0  0
    1.8093    4.1109   -2.2626 H   0  0  0  0  0  0  0  0  0  0  0  0
    0.3474    4.4866   -3.1990 H   0  0  0  0  0  0  0  0  0  0  0  0
    0.5347    5.1238   -1.5502 H   0  0  0  0  0  0  0  0  0  0  0  0
    0.3793   -2.4082   -1.2583 H   0  0  0  0  0  0  0  0  0  0  0  0
    1.5730   -2.7649    0.0441 H   0  0  0  0  0  0  0  0  0  0  0  0
    2.1673   -1.3660   -2.4135 H   0  0  0  0  0  0  0  0  0  0  0  0
   -3.7140    0.8585   -1.7601 H   0  0  0  0  0  0  0  0  0  0  0  0
   -3.9863    2.6308   -0.1968 H   0  0  0  0  0  0  0  0  0  0  0  0
   -4.1849    1.4305    1.1209 H   0  0  0  0  0  0  0  0  0  0  0  0
    3.6896   -3.3582   -1.4218 H   0  0  0  0  0  0  0  0  0  0  0  0
    5.9872   -3.7028   -0.5673 H   0  0  0  0  0  0  0  0  0  0  0  0
    7.2131   -1.8207    0.5146 H   0  0  0  0  0  0  0  0  0  0  0  0
    6.1189    0.4041    0.7183 H   0  0  0  0  0  0  0  0  0  0  0  0
    3.8084    0.7440   -0.1499 H   0  0  0  0  0  0  0  0  0  0  0  0
   -2.3457   -1.6903    0.4130 H   0  0  0  0  0  0  0  0  0  0  0  0
   -3.5948   -3.7207    1.1473 H   0  0  0  0  0  0  0  0  0  0  0  0
   -6.0476   -3.8837    0.7621 H   0  0  0  0  0  0  0  0  0  0  0  0
   -7.2487   -2.0112   -0.3564 H   0  0  0  0  0  0  0  0  0  0  0  0
   -6.0022    0.0063   -1.0817 H   0  0  0  0  0  0  0  0  0  0  0  0
  1  2  1  0  0  0  0
  1 10  1  0  0  0  0
  1 13  2  0  0  0  0
  2  3  1  0  0  0  0
  2  4  1  0  0  0  0
  2  7  1  0  0  0  0
  3 14  2  0  0  0  0
  3 17  1  0  0  0  0
  4  5  1  0  0  0  0
  4 30  1  0  0  0  0
  4 31  1  0  0  0  0
  5  6  1  0  0  0  0
  5 32  1  0  0  0  0
  5 33  1  0  0  0  0
  6 34  1  0  0  0  0
  6 35  1  0  0  0  0
  6 36  1  0  0  0  0
  7  8  1  0  0  0  0
  7 37  1  0  0  0  0
  7 38  1  0  0  0  0
  8  9  1  0  0  0  0
  8 39  1  0  0  0  0
  8 40  1  0  0  0  0
  9 41  1  0  0  0  0
  9 42  1  0  0  0  0
  9 43  1  0  0  0  0
 10 11  1  0  0  0  0
 11 12  1  0  0  0  0
 11 44  1  0  0  0  0
 11 45  1  0  0  0  0
 12 13  1  0  0  0  0
 12 18  1  0  0  0  0
 12 46  1  6  0  0  0
 14 15  1  0  0  0  0
 15 16  1  0  0  0  0
 15 19  1  0  0  0  0
 15 47  1  6  0  0  0
 16 17  1  0  0  0  0
 16 48  1  0  0  0  0
 16 49  1  0  0  0  0
 18 20  2  0  0  0  0
 18 24  1  0  0  0  0
 19 25  2  0  0  0  0
 19 29  1  0  0  0  0
 20 21  1  0  0  0  0
 20 50  1  0  0  0  0
 21 22  2  0  0  0  0
 21 51  1  0  0  0  0
 22 23  1  0  0  0  0
 22 52  1  0  0  0  0
 23 24  2  0  0  0  0
 23 53  1  0  0  0  0
 24 54  1  0  0  0  0
 25 26  1  0  0  0  0
 25 55  1  0  0  0  0
 26 27  2  0  0  0  0
 26 56  1  0  0  0  0
 27 28  1  0  0  0  0
 27 57  1  0  0  0  0
 28 29  2  0  0  0  0
 28 58  1  0  0  0  0
 29 59  1  0  0  0  0
M  END
$$$$
