Title Card Required
 OpenBabel03192317503D

 98108  0  0  0  0  0  0  0  0999 V2000
    0.2298   -0.4639   -0.2231 P   0  0  0  0  0  0  0  0  0  0  0  0
   -0.0304   -1.6677   -1.0169 O   0  0  0  0  0  0  0  0  0  0  0  0
    0.9815   -0.6605    1.1678 O   0  0  0  0  0  0  0  0  0  0  0  0
    1.0924    0.6225   -1.0528 O   0  0  0  0  0  0  0  0  0  0  0  0
   -1.0055    0.4273    0.2964 O   0  0  0  0  0  0  0  0  0  0  0  0
    0.3881    2.7802   -0.3553 C   0  0  0  0  0  0  0  0  0  0  0  0
    1.3775    1.8217   -0.4289 C   0  0  0  0  0  0  0  0  0  0  0  0
    2.6653    1.9687    0.1600 C   0  0  0  0  0  0  0  0  0  0  0  0
    2.9435    3.1619    0.7851 C   0  0  0  0  0  0  0  0  0  0  0  0
    1.9730    4.1911    0.8977 C   0  0  0  0  0  0  0  0  0  0  0  0
    2.2725    5.3971    1.5885 C   0  0  0  0  0  0  0  0  0  0  0  0
    1.3125    6.3603    1.7708 C   0  0  0  0  0  0  0  0  0  0  0  0
    0.0020    6.1480    1.2799 C   0  0  0  0  0  0  0  0  0  0  0  0
   -0.3141    4.9986    0.5956 C   0  0  0  0  0  0  0  0  0  0  0  0
    0.6674    3.9959    0.3590 C   0  0  0  0  0  0  0  0  0  0  0  0
   -0.9563    2.4852   -0.9256 C   0  0  0  0  0  0  0  0  0  0  0  0
   -1.6247    1.3338   -0.5465 C   0  0  0  0  0  0  0  0  0  0  0  0
   -2.9693    1.0568   -0.9236 C   0  0  0  0  0  0  0  0  0  0  0  0
   -3.6118    1.9692   -1.7270 C   0  0  0  0  0  0  0  0  0  0  0  0
   -2.9478    3.1166   -2.2338 C   0  0  0  0  0  0  0  0  0  0  0  0
   -3.5976    4.0021   -3.1368 C   0  0  0  0  0  0  0  0  0  0  0  0
   -2.9328    5.0803   -3.6643 C   0  0  0  0  0  0  0  0  0  0  0  0
   -1.5799    5.3140   -3.3166 C   0  0  0  0  0  0  0  0  0  0  0  0
   -0.9303    4.4847   -2.4346 C   0  0  0  0  0  0  0  0  0  0  0  0
   -1.5989    3.3710   -1.8541 C   0  0  0  0  0  0  0  0  0  0  0  0
   -3.6699   -0.1628   -0.4318 C   0  0  0  0  0  0  0  0  0  0  0  0
   -4.7778   -0.0281    0.4088 C   0  0  0  0  0  0  0  0  0  0  0  0
   -5.4575   -1.1583    0.8792 C   0  0  0  0  0  0  0  0  0  0  0  0
   -5.0210   -2.4221    0.4689 C   0  0  0  0  0  0  0  0  0  0  0  0
   -3.9251   -2.5798   -0.3880 C   0  0  0  0  0  0  0  0  0  0  0  0
   -3.2446   -1.4356   -0.8231 C   0  0  0  0  0  0  0  0  0  0  0  0
   -3.5004   -3.9335   -0.8364 C   0  0  0  0  0  0  0  0  0  0  0  0
   -4.4433   -4.9557   -1.0173 C   0  0  0  0  0  0  0  0  0  0  0  0
   -4.0492   -6.2249   -1.4338 C   0  0  0  0  0  0  0  0  0  0  0  0
   -2.7033   -6.4939   -1.6791 C   0  0  0  0  0  0  0  0  0  0  0  0
   -1.7588   -5.4821   -1.5096 C   0  0  0  0  0  0  0  0  0  0  0  0
   -2.1493   -4.2109   -1.0932 C   0  0  0  0  0  0  0  0  0  0  0  0
   -6.6018   -1.0256    1.8188 C   0  0  0  0  0  0  0  0  0  0  0  0
   -7.5343    0.0126    1.6861 C   0  0  0  0  0  0  0  0  0  0  0  0
   -8.6018    0.1291    2.5738 C   0  0  0  0  0  0  0  0  0  0  0  0
   -8.7561   -0.7895    3.6114 C   0  0  0  0  0  0  0  0  0  0  0  0
   -7.8343   -1.8257    3.7548 C   0  0  0  0  0  0  0  0  0  0  0  0
   -6.7676   -1.9416    2.8672 C   0  0  0  0  0  0  0  0  0  0  0  0
    3.6321    0.8390    0.1797 C   0  0  0  0  0  0  0  0  0  0  0  0
    3.9387    0.1017   -0.9699 C   0  0  0  0  0  0  0  0  0  0  0  0
    4.8481   -0.9619   -0.9172 C   0  0  0  0  0  0  0  0  0  0  0  0
    5.4373   -1.2878    0.3108 C   0  0  0  0  0  0  0  0  0  0  0  0
    5.1380   -0.5734    1.4763 C   0  0  0  0  0  0  0  0  0  0  0  0
    4.2343    0.4923    1.3943 C   0  0  0  0  0  0  0  0  0  0  0  0
    5.7554   -0.9432    2.7773 C   0  0  0  0  0  0  0  0  0  0  0  0
    7.0870   -1.3750    2.8454 C   0  0  0  0  0  0  0  0  0  0  0  0
    7.6595   -1.7270    4.0653 C   0  0  0  0  0  0  0  0  0  0  0  0
    6.9106   -1.6538    5.2394 C   0  0  0  0  0  0  0  0  0  0  0  0
    5.5851   -1.2251    5.1845 C   0  0  0  0  0  0  0  0  0  0  0  0
    5.0130   -0.8727    3.9646 C   0  0  0  0  0  0  0  0  0  0  0  0
    5.1753   -1.7411   -2.1406 C   0  0  0  0  0  0  0  0  0  0  0  0
    5.2753   -1.1094   -3.3877 C   0  0  0  0  0  0  0  0  0  0  0  0
    5.5856   -1.8395   -4.5326 C   0  0  0  0  0  0  0  0  0  0  0  0
    5.8007   -3.2146   -4.4509 C   0  0  0  0  0  0  0  0  0  0  0  0
    5.7023   -3.8546   -3.2163 C   0  0  0  0  0  0  0  0  0  0  0  0
    5.3925   -3.1242   -2.0718 C   0  0  0  0  0  0  0  0  0  0  0  0
    1.6370   -1.3723    1.1263 H   0  0  0  0  0  0  0  0  0  0  0  0
    3.9293    3.3162    1.2300 H   0  0  0  0  0  0  0  0  0  0  0  0
    3.2813    5.5339    1.9831 H   0  0  0  0  0  0  0  0  0  0  0  0
    1.5505    7.2799    2.3068 H   0  0  0  0  0  0  0  0  0  0  0  0
   -0.7684    6.9011    1.4512 H   0  0  0  0  0  0  0  0  0  0  0  0
   -1.3314    4.8474    0.2367 H   0  0  0  0  0  0  0  0  0  0  0  0
   -4.6483    1.7833   -2.0175 H   0  0  0  0  0  0  0  0  0  0  0  0
   -4.6346    3.7973   -3.4105 H   0  0  0  0  0  0  0  0  0  0  0  0
   -3.4375    5.7504   -4.3614 H   0  0  0  0  0  0  0  0  0  0  0  0
   -1.0469    6.1566   -3.7592 H   0  0  0  0  0  0  0  0  0  0  0  0
    0.1138    4.6691   -2.1800 H   0  0  0  0  0  0  0  0  0  0  0  0
   -5.0822    0.9678    0.7377 H   0  0  0  0  0  0  0  0  0  0  0  0
   -5.5494   -3.3071    0.8281 H   0  0  0  0  0  0  0  0  0  0  0  0
   -2.3867   -1.5360   -1.4909 H   0  0  0  0  0  0  0  0  0  0  0  0
   -5.5025   -4.7479   -0.8552 H   0  0  0  0  0  0  0  0  0  0  0  0
   -4.7995   -7.0045   -1.5762 H   0  0  0  0  0  0  0  0  0  0  0  0
   -2.3925   -7.4874   -2.0062 H   0  0  0  0  0  0  0  0  0  0  0  0
   -0.7031   -5.6814   -1.7010 H   0  0  0  0  0  0  0  0  0  0  0  0
   -1.3969   -3.4306   -0.9602 H   0  0  0  0  0  0  0  0  0  0  0  0
   -7.4332    0.7232    0.8635 H   0  0  0  0  0  0  0  0  0  0  0  0
   -9.3231    0.9384    2.4494 H   0  0  0  0  0  0  0  0  0  0  0  0
   -9.5917   -0.6979    4.3068 H   0  0  0  0  0  0  0  0  0  0  0  0
   -7.9409   -2.5448    4.5685 H   0  0  0  0  0  0  0  0  0  0  0  0
   -6.0348   -2.7395    3.0013 H   0  0  0  0  0  0  0  0  0  0  0  0
    3.4449    0.3447   -1.9114 H   0  0  0  0  0  0  0  0  0  0  0  0
    6.1404   -2.1214    0.3611 H   0  0  0  0  0  0  0  0  0  0  0  0
    3.9867    1.0622    2.2922 H   0  0  0  0  0  0  0  0  0  0  0  0
    7.6871   -1.4109    1.9340 H   0  0  0  0  0  0  0  0  0  0  0  0
    8.7003   -2.0530    4.1001 H   0  0  0  0  0  0  0  0  0  0  0  0
    7.3591   -1.9303    6.1946 H   0  0  0  0  0  0  0  0  0  0  0  0
    4.9883   -1.1737    6.0965 H   0  0  0  0  0  0  0  0  0  0  0  0
    3.9670   -0.5613    3.9278 H   0  0  0  0  0  0  0  0  0  0  0  0
    5.1298   -0.0298   -3.4568 H   0  0  0  0  0  0  0  0  0  0  0  0
    5.6666   -1.3294   -5.4937 H   0  0  0  0  0  0  0  0  0  0  0  0
    6.0432   -3.7865   -5.3478 H   0  0  0  0  0  0  0  0  0  0  0  0
    5.8582   -4.9320   -3.1444 H   0  0  0  0  0  0  0  0  0  0  0  0
    5.2916   -3.6380   -1.1139 H   0  0  0  0  0  0  0  0  0  0  0  0
  1  2  2  0  0  0  0
  1  3  1  0  0  0  0
  1  4  1  0  0  0  0
  1  5  1  0  0  0  0
  3 62  1  0  0  0  0
  4  7  1  0  0  0  0
  5 17  1  0  0  0  0
  6  7  2  0  0  0  0
  6 15  1  0  0  0  0
  6 16  1  0  0  0  0
  7  8  1  0  0  0  0
  8  9  2  0  0  0  0
  8 44  1  0  0  0  0
  9 10  1  0  0  0  0
  9 63  1  0  0  0  0
 10 11  2  0  0  0  0
 10 15  1  0  0  0  0
 11 12  1  0  0  0  0
 11 64  1  0  0  0  0
 12 13  2  0  0  0  0
 12 65  1  0  0  0  0
 13 14  1  0  0  0  0
 13 66  1  0  0  0  0
 14 15  2  0  0  0  0
 14 67  1  0  0  0  0
 16 17  2  0  0  0  0
 16 25  1  0  0  0  0
 17 18  1  0  0  0  0
 18 19  2  0  0  0  0
 18 26  1  0  0  0  0
 19 20  1  0  0  0  0
 19 68  1  0  0  0  0
 20 21  2  0  0  0  0
 20 25  1  0  0  0  0
 21 22  1  0  0  0  0
 21 69  1  0  0  0  0
 22 23  2  0  0  0  0
 22 70  1  0  0  0  0
 23 24  1  0  0  0  0
 23 71  1  0  0  0  0
 24 25  2  0  0  0  0
 24 72  1  0  0  0  0
 26 27  2  0  0  0  0
 26 31  1  0  0  0  0
 27 28  1  0  0  0  0
 27 73  1  0  0  0  0
 28 29  2  0  0  0  0
 28 38  1  0  0  0  0
 29 30  1  0  0  0  0
 29 74  1  0  0  0  0
 30 31  2  0  0  0  0
 30 32  1  0  0  0  0
 31 75  1  0  0  0  0
 32 33  2  0  0  0  0
 32 37  1  0  0  0  0
 33 34  1  0  0  0  0
 33 76  1  0  0  0  0
 34 35  2  0  0  0  0
 34 77  1  0  0  0  0
 35 36  1  0  0  0  0
 35 78  1  0  0  0  0
 36 37  2  0  0  0  0
 36 79  1  0  0  0  0
 37 80  1  0  0  0  0
 38 39  2  0  0  0  0
 38 43  1  0  0  0  0
 39 40  1  0  0  0  0
 39 81  1  0  0  0  0
 40 41  2  0  0  0  0
 40 82  1  0  0  0  0
 41 42  1  0  0  0  0
 41 83  1  0  0  0  0
 42 43  2  0  0  0  0
 42 84  1  0  0  0  0
 43 85  1  0  0  0  0
 44 45  2  0  0  0  0
 44 49  1  0  0  0  0
 45 46  1  0  0  0  0
 45 86  1  0  0  0  0
 46 47  2  0  0  0  0
 46 56  1  0  0  0  0
 47 48  1  0  0  0  0
 47 87  1  0  0  0  0
 48 49  2  0  0  0  0
 48 50  1  0  0  0  0
 49 88  1  0  0  0  0
 50 51  2  0  0  0  0
 50 55  1  0  0  0  0
 51 52  1  0  0  0  0
 51 89  1  0  0  0  0
 52 53  2  0  0  0  0
 52 90  1  0  0  0  0
 53 54  1  0  0  0  0
 53 91  1  0  0  0  0
 54 55  2  0  0  0  0
 54 92  1  0  0  0  0
 55 93  1  0  0  0  0
 56 57  2  0  0  0  0
 56 61  1  0  0  0  0
 57 58  1  0  0  0  0
 57 94  1  0  0  0  0
 58 59  2  0  0  0  0
 58 95  1  0  0  0  0
 59 60  1  0  0  0  0
 59 96  1  0  0  0  0
 60 61  2  0  0  0  0
 60 97  1  0  0  0  0
 61 98  1  0  0  0  0
M  END
$$$$
