Title Card Required
 OpenBabel03192317543D

123128  0  0  1  0  0  0  0  0999 V2000
   -2.8841    0.8446   -2.8751 C   0  0  0  0  0  0  0  0  0  0  0  0
    1.3515    3.3546   -3.9127 C   0  0  0  0  0  0  0  0  0  0  0  0
    0.2909    2.3855    2.8178 C   0  0  0  0  0  0  0  0  0  0  0  0
    0.5480    1.1001    3.2927 C   0  0  0  0  0  0  0  0  0  0  0  0
   -2.7165   -4.5980    0.9910 C   0  0  0  0  0  0  0  0  0  0  0  0
   -1.3868   -4.5689    0.5687 C   0  0  0  0  0  0  0  0  0  0  0  0
   -0.7505    2.1622   -3.2159 C   0  0  0  0  0  0  0  0  0  0  0  0
    2.3450    0.8736    1.6909 C   0  0  0  0  0  0  0  0  0  0  0  0
   -2.9708   -2.2950    0.3035 C   0  0  0  0  0  0  0  0  0  0  0  0
    1.5939    0.3643    2.7568 C   0  0  0  0  0  0  0  0  0  0  0  0
   -3.5070   -3.4597    0.8476 C   0  0  0  0  0  0  0  0  0  0  0  0
   -3.8713   -1.1264    0.1023 C   0  0  0  0  0  0  0  0  0  0  0  0
    4.4074   -0.4615    2.0848 C   0  0  0  0  0  0  0  0  0  0  0  0
   -4.4612    1.2181    0.5137 C   0  0  0  0  0  0  0  0  0  0  0  0
    4.7052   -0.9340   -0.7023 C   0  0  0  0  0  0  0  0  0  0  0  0
   -5.1258   -1.3481   -0.4883 C   0  0  0  0  0  0  0  0  0  0  0  0
    5.5965   -1.4579    0.2396 C   0  0  0  0  0  0  0  0  0  0  0  0
   -5.6897    0.9621   -0.0909 C   0  0  0  0  0  0  0  0  0  0  0  0
    1.0288    2.9559    1.7731 C   0  0  0  0  0  0  0  0  0  0  0  0
   -0.8094   -3.4144    0.0177 C   0  0  0  0  0  0  0  0  0  0  0  0
    2.0083    2.1367    1.1761 C   0  0  0  0  0  0  0  0  0  0  0  0
   -1.6196   -2.2702   -0.0912 C   0  0  0  0  0  0  0  0  0  0  0  0
    0.7709    2.1495   -3.1860 C   0  0  2  0  0  0  0  0  0  0  0  0
   -1.4267    1.0123   -2.4789 C   0  0  1  0  0  0  0  0  0  0  0  0
    3.5016    0.0918    1.1753 C   0  0  0  0  0  0  0  0  0  0  0  0
    3.6520   -0.1480   -0.1994 C   0  0  0  0  0  0  0  0  0  0  0  0
   -3.5283    0.1553    0.5455 C   0  0  0  0  0  0  0  0  0  0  0  0
   -6.0225   -0.2936   -0.6137 C   0  0  0  0  0  0  0  0  0  0  0  0
    5.4644   -1.2384    1.6117 C   0  0  0  0  0  0  0  0  0  0  0  0
   -1.1465   -1.1230   -0.6802 O   0  0  0  0  0  0  0  0  0  0  0  0
    2.6582    0.3610   -1.0072 O   0  0  0  0  0  0  0  0  0  0  0  0
    2.7346    2.6267    0.1100 O   0  0  0  0  0  0  0  0  0  0  0  0
    2.7609    1.9771   -1.4057 P   0  0  2  0  0  0  0  0  0  0  0  0
   -2.2720    0.3507    1.0773 O   0  0  0  0  0  0  0  0  0  0  0  0
   -0.8906    0.3251    0.1436 P   0  0  0  0  0  0  0  0  0  0  0  0
    1.1861    2.1223   -1.8163 O   0  0  0  0  0  0  0  0  0  0  0  0
   -1.3573    1.2973   -1.0824 O   0  0  0  0  0  0  0  0  0  0  0  0
   -3.3163   -5.6842    1.5368 O   0  0  0  0  0  0  0  0  0  0  0  0
   -2.5514   -6.8427    1.7254 C   0  0  0  0  0  0  0  0  0  0  0  0
    6.4031   -1.8089    2.4025 O   0  0  0  0  0  0  0  0  0  0  0  0
    6.3027   -1.6204    3.7883 C   0  0  0  0  0  0  0  0  0  0  0  0
   -7.2404   -0.3902   -1.1981 O   0  0  0  0  0  0  0  0  0  0  0  0
   -7.6164   -1.6302   -1.7322 C   0  0  0  0  0  0  0  0  0  0  0  0
    0.6550   -3.4293   -0.4473 C   0  0  0  0  0  0  0  0  0  0  0  0
    1.2680   -4.8320   -0.3399 C   0  0  0  0  0  0  0  0  0  0  0  0
    0.7656   -2.9953   -1.9199 C   0  0  0  0  0  0  0  0  0  0  0  0
    1.4884   -2.4928    0.4403 C   0  0  0  0  0  0  0  0  0  0  0  0
    0.8444    4.4297    1.3744 C   0  0  0  0  0  0  0  0  0  0  0  0
    2.1702    5.1784    1.6061 C   0  0  0  0  0  0  0  0  0  0  0  0
    0.4157    4.5772   -0.0971 C   0  0  0  0  0  0  0  0  0  0  0  0
   -0.2171    5.1071    2.2511 C   0  0  0  0  0  0  0  0  0  0  0  0
    4.9629   -1.2933   -2.1792 C   0  0  0  0  0  0  0  0  0  0  0  0
    5.0013   -2.8271   -2.3102 C   0  0  0  0  0  0  0  0  0  0  0  0
    3.9158   -0.7823   -3.1793 C   0  0  0  0  0  0  0  0  0  0  0  0
    6.3251   -0.7097   -2.5916 C   0  0  0  0  0  0  0  0  0  0  0  0
   -4.1884    2.5750    1.1828 C   0  0  0  0  0  0  0  0  0  0  0  0
   -3.8627    2.3502    2.6707 C   0  0  0  0  0  0  0  0  0  0  0  0
   -3.0208    3.3156    0.5135 C   0  0  0  0  0  0  0  0  0  0  0  0
   -5.4190    3.4874    1.1053 C   0  0  0  0  0  0  0  0  0  0  0  0
   -3.4439    1.7676   -2.6599 H   0  0  0  0  0  0  0  0  0  0  0  0
   -3.3400    0.0255   -2.3019 H   0  0  0  0  0  0  0  0  0  0  0  0
   -2.9714    0.6187   -3.9477 H   0  0  0  0  0  0  0  0  0  0  0  0
    1.0308    4.2800   -3.4120 H   0  0  0  0  0  0  0  0  0  0  0  0
    2.4496    3.3276   -3.9278 H   0  0  0  0  0  0  0  0  0  0  0  0
    0.9954    3.3782   -4.9521 H   0  0  0  0  0  0  0  0  0  0  0  0
   -0.5068    2.9593    3.2861 H   0  0  0  0  0  0  0  0  0  0  0  0
   -0.7819   -5.4651    0.6651 H   0  0  0  0  0  0  0  0  0  0  0  0
   -1.0567    2.1360   -4.2737 H   0  0  0  0  0  0  0  0  0  0  0  0
   -1.1179    3.1107   -2.7892 H   0  0  0  0  0  0  0  0  0  0  0  0
    1.8276   -0.6317    3.1373 H   0  0  0  0  0  0  0  0  0  0  0  0
   -4.5455   -3.4956    1.1778 H   0  0  0  0  0  0  0  0  0  0  0  0
    4.2753   -0.2553    3.1459 H   0  0  0  0  0  0  0  0  0  0  0  0
   -5.3612   -2.3487   -0.8479 H   0  0  0  0  0  0  0  0  0  0  0  0
    6.4439   -2.0691   -0.0722 H   0  0  0  0  0  0  0  0  0  0  0  0
   -6.4526    1.7327   -0.1761 H   0  0  0  0  0  0  0  0  0  0  0  0
    1.1196    1.2178   -3.6714 H   0  0  0  0  0  0  0  0  0  0  0  0
   -0.8858    0.0737   -2.6852 H   0  0  0  0  0  0  0  0  0  0  0  0
   -2.1739   -7.2430    0.7692 H   0  0  0  0  0  0  0  0  0  0  0  0
   -1.6947   -6.6579    2.3953 H   0  0  0  0  0  0  0  0  0  0  0  0
   -3.2122   -7.5854    2.1864 H   0  0  0  0  0  0  0  0  0  0  0  0
    6.3770   -0.5536    4.0579 H   0  0  0  0  0  0  0  0  0  0  0  0
    5.3547   -2.0218    4.1842 H   0  0  0  0  0  0  0  0  0  0  0  0
    7.1388   -2.1633    4.2429 H   0  0  0  0  0  0  0  0  0  0  0  0
   -6.9153   -1.9620   -2.5166 H   0  0  0  0  0  0  0  0  0  0  0  0
   -7.6694   -2.4083   -0.9522 H   0  0  0  0  0  0  0  0  0  0  0  0
   -8.6110   -1.4972   -2.1726 H   0  0  0  0  0  0  0  0  0  0  0  0
    0.7176   -5.5674   -0.9455 H   0  0  0  0  0  0  0  0  0  0  0  0
    2.3029   -4.7973   -0.7092 H   0  0  0  0  0  0  0  0  0  0  0  0
    1.3028   -5.1878    0.7003 H   0  0  0  0  0  0  0  0  0  0  0  0
    0.4888   -1.9432   -2.0538 H   0  0  0  0  0  0  0  0  0  0  0  0
    1.8041   -3.1256   -2.2609 H   0  0  0  0  0  0  0  0  0  0  0  0
    0.1188   -3.6163   -2.5583 H   0  0  0  0  0  0  0  0  0  0  0  0
    1.2027   -1.4401    0.3124 H   0  0  0  0  0  0  0  0  0  0  0  0
    1.3730   -2.7614    1.5019 H   0  0  0  0  0  0  0  0  0  0  0  0
    2.5557   -2.5795    0.1807 H   0  0  0  0  0  0  0  0  0  0  0  0
    2.9830    4.7512    1.0064 H   0  0  0  0  0  0  0  0  0  0  0  0
    2.0497    6.2368    1.3267 H   0  0  0  0  0  0  0  0  0  0  0  0
    2.4569    5.1358    2.6678 H   0  0  0  0  0  0  0  0  0  0  0  0
   -0.3683    3.8521   -0.3624 H   0  0  0  0  0  0  0  0  0  0  0  0
    0.0345    5.5963   -0.2671 H   0  0  0  0  0  0  0  0  0  0  0  0
    1.2594    4.4126   -0.7763 H   0  0  0  0  0  0  0  0  0  0  0  0
   -1.2070    4.6477    2.1262 H   0  0  0  0  0  0  0  0  0  0  0  0
    0.0532    5.0722    3.3167 H   0  0  0  0  0  0  0  0  0  0  0  0
   -0.2974    6.1648    1.9610 H   0  0  0  0  0  0  0  0  0  0  0  0
    4.0437   -3.2661   -1.9908 H   0  0  0  0  0  0  0  0  0  0  0  0
    5.1768   -3.1094   -3.3594 H   0  0  0  0  0  0  0  0  0  0  0  0
    5.7980   -3.2771   -1.7027 H   0  0  0  0  0  0  0  0  0  0  0  0
    3.9101    0.3152   -3.2395 H   0  0  0  0  0  0  0  0  0  0  0  0
    4.1822   -1.1642   -4.1766 H   0  0  0  0  0  0  0  0  0  0  0  0
    2.9040   -1.1260   -2.9310 H   0  0  0  0  0  0  0  0  0  0  0  0
    6.3182    0.3866   -2.4993 H   0  0  0  0  0  0  0  0  0  0  0  0
    7.1422   -1.0985   -1.9681 H   0  0  0  0  0  0  0  0  0  0  0  0
    6.5429   -0.9671   -3.6397 H   0  0  0  0  0  0  0  0  0  0  0  0
   -2.9780    1.7116    2.7907 H   0  0  0  0  0  0  0  0  0  0  0  0
   -3.6661    3.3202    3.1553 H   0  0  0  0  0  0  0  0  0  0  0  0
   -4.7115    1.8762    3.1864 H   0  0  0  0  0  0  0  0  0  0  0  0
   -3.1238    3.3307   -0.5815 H   0  0  0  0  0  0  0  0  0  0  0  0
   -2.9999    4.3569    0.8713 H   0  0  0  0  0  0  0  0  0  0  0  0
   -2.0550    2.8537    0.7516 H   0  0  0  0  0  0  0  0  0  0  0  0
   -5.6706    3.7460    0.0660 H   0  0  0  0  0  0  0  0  0  0  0  0
   -6.3005    3.0266    1.5740 H   0  0  0  0  0  0  0  0  0  0  0  0
   -5.2037    4.4234    1.6401 H   0  0  0  0  0  0  0  0  0  0  0  0
   -0.0634    0.6862    4.0954 H   0  0  0  0  0  0  0  0  0  0  0  0
  1 24  1  0  0  0  0
  1 60  1  0  0  0  0
  1 61  1  0  0  0  0
  1 62  1  0  0  0  0
  2 23  1  0  0  0  0
  2 63  1  0  0  0  0
  2 64  1  0  0  0  0
  2 65  1  0  0  0  0
  3  4  2  0  0  0  0
  3 19  1  0  0  0  0
  3 66  1  0  0  0  0
  4 10  1  0  0  0  0
  4123  1  0  0  0  0
  5  6  2  0  0  0  0
  5 11  1  0  0  0  0
  5 38  1  0  0  0  0
  6 20  1  0  0  0  0
  6 67  1  0  0  0  0
  7 23  1  0  0  0  0
  7 24  1  0  0  0  0
  7 68  1  0  0  0  0
  7 69  1  0  0  0  0
  8 10  2  0  0  0  0
  8 21  1  0  0  0  0
  8 25  1  0  0  0  0
  9 11  2  0  0  0  0
  9 12  1  0  0  0  0
  9 22  1  0  0  0  0
 10 70  1  0  0  0  0
 11 71  1  0  0  0  0
 12 16  2  0  0  0  0
 12 27  1  0  0  0  0
 13 25  2  0  0  0  0
 13 29  1  0  0  0  0
 13 72  1  0  0  0  0
 14 18  1  0  0  0  0
 14 27  2  0  0  0  0
 14 56  1  0  0  0  0
 15 17  1  0  0  0  0
 15 26  2  0  0  0  0
 15 52  1  0  0  0  0
 16 28  1  0  0  0  0
 16 73  1  0  0  0  0
 17 29  2  0  0  0  0
 17 74  1  0  0  0  0
 18 28  2  0  0  0  0
 18 75  1  0  0  0  0
 19 21  2  0  0  0  0
 19 48  1  0  0  0  0
 20 22  2  0  0  0  0
 20 44  1  0  0  0  0
 21 32  1  0  0  0  0
 22 30  1  0  0  0  0
 23 36  1  0  0  0  0
 23 76  1  6  0  0  0
 24 37  1  0  0  0  0
 24 77  1  6  0  0  0
 25 26  1  0  0  0  0
 26 31  1  0  0  0  0
 27 34  1  0  0  0  0
 28 42  1  0  0  0  0
 29 40  1  0  0  0  0
 30 35  1  0  0  0  0
 31 33  1  0  0  0  0
 32 33  1  0  0  0  0
 33 36  1  6  0  0  0
 34 35  1  0  0  0  0
 35 37  1  0  0  0  0
 38 39  1  0  0  0  0
 39 78  1  0  0  0  0
 39 79  1  0  0  0  0
 39 80  1  0  0  0  0
 40 41  1  0  0  0  0
 41 81  1  0  0  0  0
 41 82  1  0  0  0  0
 41 83  1  0  0  0  0
 42 43  1  0  0  0  0
 43 84  1  0  0  0  0
 43 85  1  0  0  0  0
 43 86  1  0  0  0  0
 44 45  1  0  0  0  0
 44 46  1  0  0  0  0
 44 47  1  0  0  0  0
 45 87  1  0  0  0  0
 45 88  1  0  0  0  0
 45 89  1  0  0  0  0
 46 90  1  0  0  0  0
 46 91  1  0  0  0  0
 46 92  1  0  0  0  0
 47 93  1  0  0  0  0
 47 94  1  0  0  0  0
 47 95  1  0  0  0  0
 48 49  1  0  0  0  0
 48 50  1  0  0  0  0
 48 51  1  0  0  0  0
 49 96  1  0  0  0  0
 49 97  1  0  0  0  0
 49 98  1  0  0  0  0
 50 99  1  0  0  0  0
 50100  1  0  0  0  0
 50101  1  0  0  0  0
 51102  1  0  0  0  0
 51103  1  0  0  0  0
 51104  1  0  0  0  0
 52 53  1  0  0  0  0
 52 54  1  0  0  0  0
 52 55  1  0  0  0  0
 53105  1  0  0  0  0
 53106  1  0  0  0  0
 53107  1  0  0  0  0
 54108  1  0  0  0  0
 54109  1  0  0  0  0
 54110  1  0  0  0  0
 55111  1  0  0  0  0
 55112  1  0  0  0  0
 55113  1  0  0  0  0
 56 57  1  0  0  0  0
 56 58  1  0  0  0  0
 56 59  1  0  0  0  0
 57114  1  0  0  0  0
 57115  1  0  0  0  0
 57116  1  0  0  0  0
 58117  1  0  0  0  0
 58118  1  0  0  0  0
 58119  1  0  0  0  0
 59120  1  0  0  0  0
 59121  1  0  0  0  0
 59122  1  0  0  0  0
M  END
$$$$
