Title Card Required
 OpenBabel03192317473D

 47 50  0  0  1  0  0  0  0  0999 V2000
   -1.3591   -1.4215   -0.1571 C   0  0  0  0  0  0  0  0  0  0  0  0
   -2.3726   -0.5979   -1.0020 C   0  0  2  0  0  0  0  0  0  0  0  0
   -1.8304    0.7580   -0.9581 N   0  0  0  0  0  0  0  0  0  0  0  0
   -0.8819    0.7474   -0.1203 C   0  0  0  0  0  0  0  0  0  0  0  0
   -0.5889   -0.4176    0.5025 O   0  0  0  0  0  0  0  0  0  0  0  0
   -0.0434    1.9248    0.2995 C   0  0  0  0  0  0  0  0  0  0  0  0
    1.3779    1.6194   -0.1034 C   0  0  0  0  0  0  0  0  0  0  0  0
    1.7403    0.7633   -0.9634 N   0  0  0  0  0  0  0  0  0  0  0  0
    3.2005    0.7504   -0.9595 C   0  0  1  0  0  0  0  0  0  0  0  0
    3.5691    1.9940   -0.0999 C   0  0  0  0  0  0  0  0  0  0  0  0
    2.3300    2.3506    0.5169 O   0  0  0  0  0  0  0  0  0  0  0  0
   -3.7967   -0.6766   -0.4814 C   0  0  0  0  0  0  0  0  0  0  0  0
    3.7448   -0.5477   -0.3892 C   0  0  0  0  0  0  0  0  0  0  0  0
    5.0853   -0.8849   -0.6053 C   0  0  0  0  0  0  0  0  0  0  0  0
    5.6268   -2.0401   -0.0469 C   0  0  0  0  0  0  0  0  0  0  0  0
    4.8279   -2.8776    0.7323 C   0  0  0  0  0  0  0  0  0  0  0  0
    3.4900   -2.5509    0.9444 C   0  0  0  0  0  0  0  0  0  0  0  0
    2.9465   -1.3926    0.3867 C   0  0  0  0  0  0  0  0  0  0  0  0
   -4.4267    0.4138    0.1201 C   0  0  0  0  0  0  0  0  0  0  0  0
   -5.7278    0.2925    0.6118 C   0  0  0  0  0  0  0  0  0  0  0  0
   -6.4114   -0.9161    0.5052 C   0  0  0  0  0  0  0  0  0  0  0  0
   -5.7894   -2.0088   -0.1009 C   0  0  0  0  0  0  0  0  0  0  0  0
   -4.4928   -1.8861   -0.5920 C   0  0  0  0  0  0  0  0  0  0  0  0
   -0.5007    3.1946   -0.4248 C   0  0  0  0  0  0  0  0  0  0  0  0
   -0.1332    2.0917    1.8249 C   0  0  0  0  0  0  0  0  0  0  0  0
   -1.8345   -2.0629    0.5956 H   0  0  0  0  0  0  0  0  0  0  0  0
   -0.6807   -2.0173   -0.7856 H   0  0  0  0  0  0  0  0  0  0  0  0
   -2.3737   -0.9487   -2.0451 H   0  0  0  0  0  0  0  0  0  0  0  0
    3.5785    0.8630   -1.9866 H   0  0  0  0  0  0  0  0  0  0  0  0
    4.3093    1.7817    0.6815 H   0  0  0  0  0  0  0  0  0  0  0  0
    3.9094    2.8417   -0.7128 H   0  0  0  0  0  0  0  0  0  0  0  0
    5.7124   -0.2359   -1.2229 H   0  0  0  0  0  0  0  0  0  0  0  0
    6.6738   -2.2909   -0.2253 H   0  0  0  0  0  0  0  0  0  0  0  0
    5.2481   -3.7850    1.1688 H   0  0  0  0  0  0  0  0  0  0  0  0
    2.8590   -3.2045    1.5494 H   0  0  0  0  0  0  0  0  0  0  0  0
    1.8945   -1.1431    0.5426 H   0  0  0  0  0  0  0  0  0  0  0  0
   -3.8914    1.3615    0.1894 H   0  0  0  0  0  0  0  0  0  0  0  0
   -6.2104    1.1523    1.0797 H   0  0  0  0  0  0  0  0  0  0  0  0
   -7.4281   -1.0083    0.8903 H   0  0  0  0  0  0  0  0  0  0  0  0
   -6.3190   -2.9583   -0.1949 H   0  0  0  0  0  0  0  0  0  0  0  0
   -4.0120   -2.7428   -1.0729 H   0  0  0  0  0  0  0  0  0  0  0  0
   -1.5352    3.4330   -0.1432 H   0  0  0  0  0  0  0  0  0  0  0  0
    0.1540    4.0317   -0.1467 H   0  0  0  0  0  0  0  0  0  0  0  0
   -0.4703    3.0463   -1.5115 H   0  0  0  0  0  0  0  0  0  0  0  0
   -1.1783    2.2772    2.1107 H   0  0  0  0  0  0  0  0  0  0  0  0
    0.2167    1.1878    2.3404 H   0  0  0  0  0  0  0  0  0  0  0  0
    0.4819    2.9432    2.1420 H   0  0  0  0  0  0  0  0  0  0  0  0
  1  2  1  0  0  0  0
  1  5  1  0  0  0  0
  1 26  1  0  0  0  0
  1 27  1  0  0  0  0
  2  3  1  0  0  0  0
  2 12  1  0  0  0  0
  2 28  1  6  0  0  0
  3  4  2  0  0  0  0
  4  5  1  0  0  0  0
  4  6  1  0  0  0  0
  6  7  1  0  0  0  0
  6 24  1  0  0  0  0
  6 25  1  0  0  0  0
  7  8  2  0  0  0  0
  7 11  1  0  0  0  0
  8  9  1  0  0  0  0
  9 10  1  0  0  0  0
  9 13  1  0  0  0  0
  9 29  1  6  0  0  0
 10 11  1  0  0  0  0
 10 30  1  0  0  0  0
 10 31  1  0  0  0  0
 12 19  2  0  0  0  0
 12 23  1  0  0  0  0
 13 14  2  0  0  0  0
 13 18  1  0  0  0  0
 14 15  1  0  0  0  0
 14 32  1  0  0  0  0
 15 16  2  0  0  0  0
 15 33  1  0  0  0  0
 16 17  1  0  0  0  0
 16 34  1  0  0  0  0
 17 18  2  0  0  0  0
 17 35  1  0  0  0  0
 18 36  1  0  0  0  0
 19 20  1  0  0  0  0
 19 37  1  0  0  0  0
 20 21  2  0  0  0  0
 20 38  1  0  0  0  0
 21 22  1  0  0  0  0
 21 39  1  0  0  0  0
 22 23  2  0  0  0  0
 22 40  1  0  0  0  0
 23 41  1  0  0  0  0
 24 42  1  0  0  0  0
 24 43  1  0  0  0  0
 24 44  1  0  0  0  0
 25 45  1  0  0  0  0
 25 46  1  0  0  0  0
 25 47  1  0  0  0  0
M  END
$$$$
