Title Card Required
 OpenBabel03192317523D

 41 44  0  0  1  0  0  0  0  0999 V2000
    3.2047   -1.9796   -0.0706 C   0  0  0  0  0  0  0  0  0  0  0  0
    2.4118   -0.9703    0.8102 C   0  0  2  0  0  0  0  0  0  0  0  0
    1.0542   -1.5142    0.8102 N   0  0  0  0  0  0  0  0  0  0  0  0
    1.0316   -2.4496   -0.0424 C   0  0  0  0  0  0  0  0  0  0  0  0
    2.1823   -2.7916   -0.6558 O   0  0  0  0  0  0  0  0  0  0  0  0
   -0.1858   -3.2019   -0.4881 C   0  0  0  0  0  0  0  0  0  0  0  0
   -1.3949   -2.3378   -0.3108 C   0  0  0  0  0  0  0  0  0  0  0  0
   -1.7416   -1.4068   -1.0949 N   0  0  0  0  0  0  0  0  0  0  0  0
   -2.8823   -0.7285   -0.4676 C   0  0  1  0  0  0  0  0  0  0  0  0
   -3.1895   -1.6081    0.7796 C   0  0  0  0  0  0  0  0  0  0  0  0
   -2.1173   -2.5533    0.8057 O   0  0  0  0  0  0  0  0  0  0  0  0
    2.4251    0.4466    0.2676 C   0  0  0  0  0  0  0  0  0  0  0  0
   -2.5372    0.7052   -0.1200 C   0  0  0  0  0  0  0  0  0  0  0  0
   -3.3502    1.7625   -0.5317 C   0  0  0  0  0  0  0  0  0  0  0  0
   -3.0267    3.0771   -0.1934 C   0  0  0  0  0  0  0  0  0  0  0  0
   -1.8807    3.3420    0.5543 C   0  0  0  0  0  0  0  0  0  0  0  0
   -1.0637    2.2886    0.9680 C   0  0  0  0  0  0  0  0  0  0  0  0
   -1.3928    0.9758    0.6388 C   0  0  0  0  0  0  0  0  0  0  0  0
    1.5855    0.8129   -0.7899 C   0  0  0  0  0  0  0  0  0  0  0  0
    1.6309    2.1064   -1.3069 C   0  0  0  0  0  0  0  0  0  0  0  0
    2.5135    3.0464   -0.7752 C   0  0  0  0  0  0  0  0  0  0  0  0
    3.3502    2.6886    0.2812 C   0  0  0  0  0  0  0  0  0  0  0  0
    3.3029    1.3952    0.7998 C   0  0  0  0  0  0  0  0  0  0  0  0
    3.7764   -1.4965   -0.8729 H   0  0  0  0  0  0  0  0  0  0  0  0
    3.8694   -2.6254    0.5210 H   0  0  0  0  0  0  0  0  0  0  0  0
    2.8070   -0.9535    1.8362 H   0  0  0  0  0  0  0  0  0  0  0  0
   -0.0645   -3.4519   -1.5488 H   0  0  0  0  0  0  0  0  0  0  0  0
   -0.2876   -4.1301    0.0904 H   0  0  0  0  0  0  0  0  0  0  0  0
   -3.7317   -0.7230   -1.1664 H   0  0  0  0  0  0  0  0  0  0  0  0
   -3.1807   -1.0362    1.7166 H   0  0  0  0  0  0  0  0  0  0  0  0
   -4.1380   -2.1567    0.6935 H   0  0  0  0  0  0  0  0  0  0  0  0
   -4.2423    1.5554   -1.1278 H   0  0  0  0  0  0  0  0  0  0  0  0
   -3.6687    3.8964   -0.5211 H   0  0  0  0  0  0  0  0  0  0  0  0
   -1.6211    4.3704    0.8114 H   0  0  0  0  0  0  0  0  0  0  0  0
   -0.1523    2.4897    1.5352 H   0  0  0  0  0  0  0  0  0  0  0  0
   -0.7370    0.1547    0.9472 H   0  0  0  0  0  0  0  0  0  0  0  0
    0.8582    0.0986   -1.1861 H   0  0  0  0  0  0  0  0  0  0  0  0
    0.9571    2.3847   -2.1187 H   0  0  0  0  0  0  0  0  0  0  0  0
    2.5435    4.0599   -1.1783 H   0  0  0  0  0  0  0  0  0  0  0  0
    4.0381    3.4205    0.7080 H   0  0  0  0  0  0  0  0  0  0  0  0
    3.9513    1.1202    1.6355 H   0  0  0  0  0  0  0  0  0  0  0  0
  1  2  1  0  0  0  0
  1  5  1  0  0  0  0
  1 24  1  0  0  0  0
  1 25  1  0  0  0  0
  2  3  1  0  0  0  0
  2 12  1  0  0  0  0
  2 26  1  1  0  0  0
  3  4  2  0  0  0  0
  4  5  1  0  0  0  0
  4  6  1  0  0  0  0
  6  7  1  0  0  0  0
  6 27  1  0  0  0  0
  6 28  1  0  0  0  0
  7  8  2  0  0  0  0
  7 11  1  0  0  0  0
  8  9  1  0  0  0  0
  9 10  1  0  0  0  0
  9 13  1  0  0  0  0
  9 29  1  6  0  0  0
 10 11  1  0  0  0  0
 10 30  1  0  0  0  0
 10 31  1  0  0  0  0
 12 19  2  0  0  0  0
 12 23  1  0  0  0  0
 13 14  2  0  0  0  0
 13 18  1  0  0  0  0
 14 15  1  0  0  0  0
 14 32  1  0  0  0  0
 15 16  2  0  0  0  0
 15 33  1  0  0  0  0
 16 17  1  0  0  0  0
 16 34  1  0  0  0  0
 17 18  2  0  0  0  0
 17 35  1  0  0  0  0
 18 36  1  0  0  0  0
 19 20  1  0  0  0  0
 19 37  1  0  0  0  0
 20 21  2  0  0  0  0
 20 38  1  0  0  0  0
 21 22  1  0  0  0  0
 21 39  1  0  0  0  0
 22 23  2  0  0  0  0
 22 40  1  0  0  0  0
 23 41  1  0  0  0  0
M  END
$$$$
