Title Card Required
 OpenBabel03192317473D

 42 45  0  0  1  0  0  0  0  0999 V2000
   -1.7279    2.2805   -1.1703 O   0  0  0  0  0  0  0  0  0  0  0  0
   -0.8589    1.5112   -0.4915 C   0  0  0  0  0  0  0  0  0  0  0  0
   -1.1484    0.2645   -0.3649 N   0  0  0  0  0  0  0  0  0  0  0  0
   -2.3958    0.0326   -1.0855 C   0  0  2  0  0  0  0  0  0  0  0  0
   -2.8754    1.4696   -1.4231 C   0  0  0  0  0  0  0  0  0  0  0  0
    0.3326    2.1617    0.0108 C   0  0  0  0  0  0  0  0  0  0  0  0
    3.0975    0.9072    1.8852 C   0  0  0  0  0  0  0  0  0  0  0  0
    2.4233   -0.4167    1.4629 C   0  0  1  0  0  0  0  0  0  0  0  0
    1.1389    0.1121    1.0473 N   0  0  0  0  0  0  0  0  0  0  0  0
    1.2581    1.4052    0.7079 C   0  0  0  0  0  0  0  0  0  0  0  0
    2.4232    1.9028    1.1112 O   0  0  0  0  0  0  0  0  0  0  0  0
   -3.4169   -0.7587   -0.2988 C   0  0  0  0  0  0  0  0  0  0  0  0
    3.1686   -1.1509    0.3616 C   0  0  0  0  0  0  0  0  0  0  0  0
   -3.4513   -0.6942    1.0968 C   0  0  0  0  0  0  0  0  0  0  0  0
   -4.4296   -1.3842    1.8105 C   0  0  0  0  0  0  0  0  0  0  0  0
   -5.3854   -2.1445    1.1366 C   0  0  0  0  0  0  0  0  0  0  0  0
   -5.3556   -2.2145   -0.2553 C   0  0  0  0  0  0  0  0  0  0  0  0
   -4.3739   -1.5268   -0.9673 C   0  0  0  0  0  0  0  0  0  0  0  0
    4.2453   -1.9756    0.7048 C   0  0  0  0  0  0  0  0  0  0  0  0
    4.9843   -2.6214   -0.2825 C   0  0  0  0  0  0  0  0  0  0  0  0
    4.6489   -2.4522   -1.6264 C   0  0  0  0  0  0  0  0  0  0  0  0
    3.5724   -1.6390   -1.9732 C   0  0  0  0  0  0  0  0  0  0  0  0
    2.8319   -0.9907   -0.9840 C   0  0  0  0  0  0  0  0  0  0  0  0
    0.5577    3.5524   -0.2016 C   0  0  0  0  0  0  0  0  0  0  0  0
    0.7467    4.6802   -0.3735 N   0  0  0  0  0  0  0  0  0  0  0  0
   -2.1738   -0.5261   -2.0116 H   0  0  0  0  0  0  0  0  0  0  0  0
   -3.1829    1.6038   -2.4669 H   0  0  0  0  0  0  0  0  0  0  0  0
   -3.6895    1.7917   -0.7558 H   0  0  0  0  0  0  0  0  0  0  0  0
    2.9324    1.1227    2.9511 H   0  0  0  0  0  0  0  0  0  0  0  0
    4.1666    0.9469    1.6502 H   0  0  0  0  0  0  0  0  0  0  0  0
    2.3117   -1.0795    2.3329 H   0  0  0  0  0  0  0  0  0  0  0  0
    0.3414   -0.4042    0.6512 H   0  0  0  0  0  0  0  0  0  0  0  0
   -2.6921   -0.1077    1.6177 H   0  0  0  0  0  0  0  0  0  0  0  0
   -4.4442   -1.3312    2.9003 H   0  0  0  0  0  0  0  0  0  0  0  0
   -6.1502   -2.6856    1.6958 H   0  0  0  0  0  0  0  0  0  0  0  0
   -6.0962   -2.8117   -0.7897 H   0  0  0  0  0  0  0  0  0  0  0  0
   -4.3463   -1.5926   -2.0580 H   0  0  0  0  0  0  0  0  0  0  0  0
    4.5055   -2.1164    1.7574 H   0  0  0  0  0  0  0  0  0  0  0  0
    5.8212   -3.2630   -0.0031 H   0  0  0  0  0  0  0  0  0  0  0  0
    5.2243   -2.9590   -2.4023 H   0  0  0  0  0  0  0  0  0  0  0  0
    3.3023   -1.5073   -3.0218 H   0  0  0  0  0  0  0  0  0  0  0  0
    1.9791   -0.3682   -1.2639 H   0  0  0  0  0  0  0  0  0  0  0  0
  1  2  1  0  0  0  0
  1  5  1  0  0  0  0
  2  3  2  0  0  0  0
  2  6  1  0  0  0  0
  3  4  1  0  0  0  0
  4  5  1  0  0  0  0
  4 12  1  0  0  0  0
  4 26  1  6  0  0  0
  5 27  1  0  0  0  0
  5 28  1  0  0  0  0
  6 10  2  0  0  0  0
  6 24  1  0  0  0  0
  7  8  1  0  0  0  0
  7 11  1  0  0  0  0
  7 29  1  0  0  0  0
  7 30  1  0  0  0  0
  8  9  1  0  0  0  0
  8 13  1  0  0  0  0
  8 31  1  1  0  0  0
  9 10  1  0  0  0  0
  9 32  1  0  0  0  0
 10 11  1  0  0  0  0
 12 14  2  0  0  0  0
 12 18  1  0  0  0  0
 13 19  2  0  0  0  0
 13 23  1  0  0  0  0
 14 15  1  0  0  0  0
 14 33  1  0  0  0  0
 15 16  2  0  0  0  0
 15 34  1  0  0  0  0
 16 17  1  0  0  0  0
 16 35  1  0  0  0  0
 17 18  2  0  0  0  0
 17 36  1  0  0  0  0
 18 37  1  0  0  0  0
 19 20  1  0  0  0  0
 19 38  1  0  0  0  0
 20 21  2  0  0  0  0
 20 39  1  0  0  0  0
 21 22  1  0  0  0  0
 21 40  1  0  0  0  0
 22 23  2  0  0  0  0
 22 41  1  0  0  0  0
 23 42  1  0  0  0  0
 24 25  3  0  0  0  0
M  END
$$$$
