Title Card Required
 OpenBabel03192317523D

 42 45  0  0  1  0  0  0  0  0999 V2000
   -0.0571   -1.7878    0.2916 O   0  0  0  0  0  0  0  0  0  0  0  0
   -0.3848   -0.4825    0.2976 C   0  0  0  0  0  0  0  0  0  0  0  0
   -1.6118   -0.1637    0.3703 N   0  0  0  0  0  0  0  0  0  0  0  0
   -2.3718   -1.4095    0.4423 C   0  0  2  0  0  0  0  0  0  0  0  0
   -1.2908   -2.5066    0.2733 C   0  0  0  0  0  0  0  0  0  0  0  0
    0.7323    0.4942    0.2258 C   0  0  0  0  0  0  0  0  0  0  0  0
    0.4351    1.8603    0.2608 C   0  0  0  0  0  0  0  0  0  0  0  0
    1.5007    2.7479    0.1756 C   0  0  0  0  0  0  0  0  0  0  0  0
    2.7951    2.2485    0.0702 C   0  0  0  0  0  0  0  0  0  0  0  0
    2.9959    0.8591    0.0591 C   0  0  0  0  0  0  0  0  0  0  0  0
    1.9647    0.0139    0.1304 N   0  0  0  0  0  0  0  0  0  0  0  0
    4.3529    0.2481   -0.0412 C   0  0  0  0  0  0  0  0  0  0  0  0
    5.5235    1.0125    0.0488 C   0  0  0  0  0  0  0  0  0  0  0  0
    6.7750    0.4101   -0.0531 C   0  0  0  0  0  0  0  0  0  0  0  0
    6.8767   -0.9665   -0.2463 C   0  0  0  0  0  0  0  0  0  0  0  0
    5.7169   -1.7371   -0.3305 C   0  0  0  0  0  0  0  0  0  0  0  0
    4.4657   -1.1369   -0.2268 C   0  0  0  0  0  0  0  0  0  0  0  0
   -3.4714   -1.4802   -0.6230 C   0  0  0  0  0  0  0  0  0  0  0  0
   -4.5850   -0.4861   -0.4071 C   0  0  0  0  0  0  0  0  0  0  0  0
   -4.3907    0.8755   -0.6725 C   0  0  0  0  0  0  0  0  0  0  0  0
   -5.4140    1.7940   -0.4527 C   0  0  0  0  0  0  0  0  0  0  0  0
   -6.6489    1.3686    0.0389 C   0  0  0  0  0  0  0  0  0  0  0  0
   -6.8523    0.0173    0.3093 C   0  0  0  0  0  0  0  0  0  0  0  0
   -5.8257   -0.9006    0.0872 C   0  0  0  0  0  0  0  0  0  0  0  0
   -2.8523   -1.4655    1.4337 H   0  0  0  0  0  0  0  0  0  0  0  0
   -1.2805   -3.2484    1.0818 H   0  0  0  0  0  0  0  0  0  0  0  0
   -1.3788   -3.0292   -0.6928 H   0  0  0  0  0  0  0  0  0  0  0  0
   -0.6022    2.1813    0.3488 H   0  0  0  0  0  0  0  0  0  0  0  0
    1.3276    3.8249    0.1879 H   0  0  0  0  0  0  0  0  0  0  0  0
    3.6360    2.9349   -0.0114 H   0  0  0  0  0  0  0  0  0  0  0  0
    5.4727    2.0891    0.2129 H   0  0  0  0  0  0  0  0  0  0  0  0
    7.6760    1.0209    0.0206 H   0  0  0  0  0  0  0  0  0  0  0  0
    7.8574   -1.4377   -0.3286 H   0  0  0  0  0  0  0  0  0  0  0  0
    5.7875   -2.8159   -0.4780 H   0  0  0  0  0  0  0  0  0  0  0  0
    3.5495   -1.7248   -0.2829 H   0  0  0  0  0  0  0  0  0  0  0  0
   -2.9989   -1.3209   -1.6060 H   0  0  0  0  0  0  0  0  0  0  0  0
   -3.8861   -2.5007   -0.6227 H   0  0  0  0  0  0  0  0  0  0  0  0
   -3.4201    1.2090   -1.0426 H   0  0  0  0  0  0  0  0  0  0  0  0
   -5.2476    2.8512   -0.6668 H   0  0  0  0  0  0  0  0  0  0  0  0
   -7.4500    2.0899    0.2074 H   0  0  0  0  0  0  0  0  0  0  0  0
   -7.8150   -0.3272    0.6909 H   0  0  0  0  0  0  0  0  0  0  0  0
   -5.9936   -1.9604    0.2953 H   0  0  0  0  0  0  0  0  0  0  0  0
  1  2  1  0  0  0  0
  1  5  1  0  0  0  0
  2  3  2  0  0  0  0
  2  6  1  0  0  0  0
  3  4  1  0  0  0  0
  4  5  1  0  0  0  0
  4 18  1  0  0  0  0
  4 25  1  1  0  0  0
  5 26  1  0  0  0  0
  5 27  1  0  0  0  0
  6  7  2  0  0  0  0
  6 11  1  0  0  0  0
  7  8  1  0  0  0  0
  7 28  1  0  0  0  0
  8  9  2  0  0  0  0
  8 29  1  0  0  0  0
  9 10  1  0  0  0  0
  9 30  1  0  0  0  0
 10 11  2  0  0  0  0
 10 12  1  0  0  0  0
 12 13  2  0  0  0  0
 12 17  1  0  0  0  0
 13 14  1  0  0  0  0
 13 31  1  0  0  0  0
 14 15  2  0  0  0  0
 14 32  1  0  0  0  0
 15 16  1  0  0  0  0
 15 33  1  0  0  0  0
 16 17  2  0  0  0  0
 16 34  1  0  0  0  0
 17 35  1  0  0  0  0
 18 19  1  0  0  0  0
 18 36  1  0  0  0  0
 18 37  1  0  0  0  0
 19 20  2  0  0  0  0
 19 24  1  0  0  0  0
 20 21  1  0  0  0  0
 20 38  1  0  0  0  0
 21 22  2  0  0  0  0
 21 39  1  0  0  0  0
 22 23  1  0  0  0  0
 22 40  1  0  0  0  0
 23 24  2  0  0  0  0
 23 41  1  0  0  0  0
 24 42  1  0  0  0  0
M  END
$$$$
