Title Card Required
 OpenBabel03192317543D

170175  0  0  0  0  0  0  0  0999 V2000
   -0.6182   -2.0439    0.0155 C   0  0  0  0  0  0  0  0  0  0  0  0
   -1.8812   -1.6318    0.4637 C   0  0  0  0  0  0  0  0  0  0  0  0
   -2.3306   -2.0346    1.7326 C   0  0  0  0  0  0  0  0  0  0  0  0
   -1.5423   -2.8515    2.5312 C   0  0  0  0  0  0  0  0  0  0  0  0
   -0.2991   -3.2999    2.0822 C   0  0  0  0  0  0  0  0  0  0  0  0
    0.1532   -2.9146    0.8220 C   0  0  0  0  0  0  0  0  0  0  0  0
   -0.0900   -1.6474   -1.3225 C   0  0  0  0  0  0  0  0  0  0  0  0
    1.1060   -0.9239   -1.4584 C   0  0  0  0  0  0  0  0  0  0  0  0
    1.5788   -0.5926   -2.7404 C   0  0  0  0  0  0  0  0  0  0  0  0
    0.8741   -0.9851   -3.8698 C   0  0  0  0  0  0  0  0  0  0  0  0
   -0.2922   -1.7437   -3.7501 C   0  0  0  0  0  0  0  0  0  0  0  0
   -0.7557   -2.1065   -2.4854 C   0  0  0  0  0  0  0  0  0  0  0  0
   -1.8160   -2.9184   -2.2892 O   0  0  0  0  0  0  0  0  0  0  0  0
   -2.5982   -3.2953   -3.3906 C   0  0  0  0  0  0  0  0  0  0  0  0
    1.3106   -3.3524    0.2826 O   0  0  0  0  0  0  0  0  0  0  0  0
    2.1560   -4.1740    1.0454 C   0  0  0  0  0  0  0  0  0  0  0  0
   -2.9056   -0.5068   -0.6074 P   0  0  0  0  0  0  0  0  0  0  0  0
   -4.5778   -1.0505   -0.0584 C   0  0  0  0  0  0  0  0  0  0  0  0
   -5.6413   -0.1837    0.2185 C   0  0  0  0  0  0  0  0  0  0  0  0
   -6.9413   -0.6683    0.4606 C   0  0  0  0  0  0  0  0  0  0  0  0
   -7.1530   -2.0511    0.4087 C   0  0  0  0  0  0  0  0  0  0  0  0
   -6.1152   -2.9546    0.1269 C   0  0  0  0  0  0  0  0  0  0  0  0
   -4.8404   -2.4311   -0.1119 C   0  0  0  0  0  0  0  0  0  0  0  0
   -6.4337   -4.8102    0.1020 Si  0  0  0  0  0  0  0  0  0  0  0  0
   -7.7640   -5.2210   -1.1676 C   0  0  0  0  0  0  0  0  0  0  0  0
   -4.8463   -5.7288   -0.3197 C   0  0  0  0  0  0  0  0  0  0  0  0
   -7.0520   -5.3528    1.7973 C   0  0  0  0  0  0  0  0  0  0  0  0
   -8.3644    0.4937    0.8779 Si  0  0  0  0  0  0  0  0  0  0  0  0
  -10.0130   -0.2796    0.4005 C   0  0  0  0  0  0  0  0  0  0  0  0
   -8.3723    0.8581    2.7271 C   0  0  0  0  0  0  0  0  0  0  0  0
   -8.1605    2.1147   -0.0541 C   0  0  0  0  0  0  0  0  0  0  0  0
   -2.5643    1.1172    0.1876 C   0  0  0  0  0  0  0  0  0  0  0  0
   -1.5586    1.2842    1.1499 C   0  0  0  0  0  0  0  0  0  0  0  0
   -1.1879    2.5546    1.6088 C   0  0  0  0  0  0  0  0  0  0  0  0
   -1.8542    3.6696    1.0818 C   0  0  0  0  0  0  0  0  0  0  0  0
   -2.8581    3.5551    0.1086 C   0  0  0  0  0  0  0  0  0  0  0  0
   -3.1927    2.2626   -0.3316 C   0  0  0  0  0  0  0  0  0  0  0  0
   -3.6683    5.0748   -0.6655 Si  0  0  0  0  0  0  0  0  0  0  0  0
   -3.1126    5.2774   -2.4621 C   0  0  0  0  0  0  0  0  0  0  0  0
   -5.5411    4.8726   -0.6966 C   0  0  0  0  0  0  0  0  0  0  0  0
   -3.2270    6.6136    0.3246 C   0  0  0  0  0  0  0  0  0  0  0  0
    0.1207    2.7628    2.9519 Si  0  0  0  0  0  0  0  0  0  0  0  0
   -0.6877    3.6849    4.3873 C   0  0  0  0  0  0  0  0  0  0  0  0
    0.6961    1.0705    3.5363 C   0  0  0  0  0  0  0  0  0  0  0  0
    1.5641    3.7802    2.3085 C   0  0  0  0  0  0  0  0  0  0  0  0
    2.0127   -0.4154    0.0782 P   0  0  0  0  0  0  0  0  0  0  0  0
    3.5581   -1.4374    0.0030 C   0  0  0  0  0  0  0  0  0  0  0  0
    4.0397   -2.1324   -1.1094 C   0  0  0  0  0  0  0  0  0  0  0  0
    5.1953   -2.9283   -1.0389 C   0  0  0  0  0  0  0  0  0  0  0  0
    5.8633   -3.0180    0.1910 C   0  0  0  0  0  0  0  0  0  0  0  0
    5.4092   -2.3509    1.3390 C   0  0  0  0  0  0  0  0  0  0  0  0
    4.2477   -1.5734    1.2184 C   0  0  0  0  0  0  0  0  0  0  0  0
    6.3367   -2.5081    2.9719 Si  0  0  0  0  0  0  0  0  0  0  0  0
    8.0382   -1.7160    2.7952 C   0  0  0  0  0  0  0  0  0  0  0  0
    5.3721   -1.6571    4.3451 C   0  0  0  0  0  0  0  0  0  0  0  0
    6.5676   -4.3292    3.3929 C   0  0  0  0  0  0  0  0  0  0  0  0
    5.8054   -3.8480   -2.5679 Si  0  0  0  0  0  0  0  0  0  0  0  0
    7.6857   -3.9414   -2.5587 C   0  0  0  0  0  0  0  0  0  0  0  0
    5.1063   -5.5969   -2.6056 C   0  0  0  0  0  0  0  0  0  0  0  0
    5.2437   -2.9213   -4.1097 C   0  0  0  0  0  0  0  0  0  0  0  0
    2.6604    1.2485   -0.4081 C   0  0  0  0  0  0  0  0  0  0  0  0
    1.9400    2.1450   -1.2043 C   0  0  0  0  0  0  0  0  0  0  0  0
    2.4163    3.4367   -1.4699 C   0  0  0  0  0  0  0  0  0  0  0  0
    3.6235    3.8368   -0.8801 C   0  0  0  0  0  0  0  0  0  0  0  0
    4.3674    2.9771   -0.0577 C   0  0  0  0  0  0  0  0  0  0  0  0
    3.8694    1.6839    0.1548 C   0  0  0  0  0  0  0  0  0  0  0  0
    5.9523    3.5177    0.8062 Si  0  0  0  0  0  0  0  0  0  0  0  0
    5.8438    3.0433    2.6291 C   0  0  0  0  0  0  0  0  0  0  0  0
    7.4355    2.6608    0.0210 C   0  0  0  0  0  0  0  0  0  0  0  0
    6.1471    5.3833    0.6556 C   0  0  0  0  0  0  0  0  0  0  0  0
    1.4463    4.6275   -2.5634 Si  0  0  0  0  0  0  0  0  0  0  0  0
    0.4164    5.7351   -1.4332 C   0  0  0  0  0  0  0  0  0  0  0  0
    2.6343    5.7282   -3.5260 C   0  0  0  0  0  0  0  0  0  0  0  0
    0.3783    3.6393   -3.7564 C   0  0  0  0  0  0  0  0  0  0  0  0
   -3.3010   -1.6968    2.0971 H   0  0  0  0  0  0  0  0  0  0  0  0
   -1.8969   -3.1516    3.5187 H   0  0  0  0  0  0  0  0  0  0  0  0
    0.3099   -3.9447    2.7145 H   0  0  0  0  0  0  0  0  0  0  0  0
    2.4853    0.0061   -2.8468 H   0  0  0  0  0  0  0  0  0  0  0  0
    1.2382   -0.7134   -4.8622 H   0  0  0  0  0  0  0  0  0  0  0  0
   -0.8266   -2.0592   -4.6447 H   0  0  0  0  0  0  0  0  0  0  0  0
   -3.0286   -2.4133   -3.8939 H   0  0  0  0  0  0  0  0  0  0  0  0
   -2.0148   -3.8817   -4.1196 H   0  0  0  0  0  0  0  0  0  0  0  0
   -3.4135   -3.9135   -2.9975 H   0  0  0  0  0  0  0  0  0  0  0  0
    2.4465   -3.6841    1.9899 H   0  0  0  0  0  0  0  0  0  0  0  0
    1.6735   -5.1403    1.2703 H   0  0  0  0  0  0  0  0  0  0  0  0
    3.0586   -4.3386    0.4418 H   0  0  0  0  0  0  0  0  0  0  0  0
   -5.4507    0.8923    0.2696 H   0  0  0  0  0  0  0  0  0  0  0  0
   -8.1612   -2.4400    0.5947 H   0  0  0  0  0  0  0  0  0  0  0  0
   -4.0177   -3.1107   -0.3544 H   0  0  0  0  0  0  0  0  0  0  0  0
   -7.4209   -5.0205   -2.1933 H   0  0  0  0  0  0  0  0  0  0  0  0
   -8.0301   -6.2874   -1.0992 H   0  0  0  0  0  0  0  0  0  0  0  0
   -8.6781   -4.6335   -0.9959 H   0  0  0  0  0  0  0  0  0  0  0  0
   -4.0411   -5.4989    0.3950 H   0  0  0  0  0  0  0  0  0  0  0  0
   -5.0269   -6.8140   -0.2906 H   0  0  0  0  0  0  0  0  0  0  0  0
   -4.4839   -5.4753   -1.3276 H   0  0  0  0  0  0  0  0  0  0  0  0
   -6.3292   -5.1022    2.5878 H   0  0  0  0  0  0  0  0  0  0  0  0
   -8.0063   -4.8636    2.0444 H   0  0  0  0  0  0  0  0  0  0  0  0
   -7.2160   -6.4414    1.8150 H   0  0  0  0  0  0  0  0  0  0  0  0
  -10.2215   -1.2163    0.9378 H   0  0  0  0  0  0  0  0  0  0  0  0
  -10.8126    0.4333    0.6561 H   0  0  0  0  0  0  0  0  0  0  0  0
  -10.0712   -0.4795   -0.6798 H   0  0  0  0  0  0  0  0  0  0  0  0
   -7.4264    1.3260    3.0385 H   0  0  0  0  0  0  0  0  0  0  0  0
   -9.1943    1.5455    2.9801 H   0  0  0  0  0  0  0  0  0  0  0  0
   -8.5028   -0.0630    3.3146 H   0  0  0  0  0  0  0  0  0  0  0  0
   -7.2130    2.6116    0.1970 H   0  0  0  0  0  0  0  0  0  0  0  0
   -8.1854    1.9586   -1.1434 H   0  0  0  0  0  0  0  0  0  0  0  0
   -8.9760    2.8057    0.2097 H   0  0  0  0  0  0  0  0  0  0  0  0
   -1.0345    0.4020    1.5278 H   0  0  0  0  0  0  0  0  0  0  0  0
   -1.5696    4.6696    1.4299 H   0  0  0  0  0  0  0  0  0  0  0  0
   -3.9461    2.1396   -1.1189 H   0  0  0  0  0  0  0  0  0  0  0  0
   -3.7800    4.7162   -3.1338 H   0  0  0  0  0  0  0  0  0  0  0  0
   -3.1484    6.3373   -2.7576 H   0  0  0  0  0  0  0  0  0  0  0  0
   -2.0901    4.9131   -2.6268 H   0  0  0  0  0  0  0  0  0  0  0  0
   -5.9646    4.7304    0.3083 H   0  0  0  0  0  0  0  0  0  0  0  0
   -6.0013    5.7710   -1.1371 H   0  0  0  0  0  0  0  0  0  0  0  0
   -5.8372    4.0143   -1.3190 H   0  0  0  0  0  0  0  0  0  0  0  0
   -3.6613    6.5824    1.3352 H   0  0  0  0  0  0  0  0  0  0  0  0
   -2.1391    6.7471    0.4206 H   0  0  0  0  0  0  0  0  0  0  0  0
   -3.6271    7.5003   -0.1906 H   0  0  0  0  0  0  0  0  0  0  0  0
   -1.5468    3.1148    4.7727 H   0  0  0  0  0  0  0  0  0  0  0  0
    0.0216    3.8396    5.2147 H   0  0  0  0  0  0  0  0  0  0  0  0
   -1.0580    4.6716    4.0696 H   0  0  0  0  0  0  0  0  0  0  0  0
    1.2655    0.5415    2.7551 H   0  0  0  0  0  0  0  0  0  0  0  0
    1.3426    1.1804    4.4206 H   0  0  0  0  0  0  0  0  0  0  0  0
   -0.1593    0.4376    3.8185 H   0  0  0  0  0  0  0  0  0  0  0  0
    2.1344    3.2235    1.5499 H   0  0  0  0  0  0  0  0  0  0  0  0
    1.2171    4.7192    1.8493 H   0  0  0  0  0  0  0  0  0  0  0  0
    2.2411    4.0378    3.1387 H   0  0  0  0  0  0  0  0  0  0  0  0
    3.4930   -2.0788   -2.0507 H   0  0  0  0  0  0  0  0  0  0  0  0
    6.7665   -3.6375    0.2593 H   0  0  0  0  0  0  0  0  0  0  0  0
    3.8504   -1.0599    2.1010 H   0  0  0  0  0  0  0  0  0  0  0  0
    7.9713   -0.7102    2.3549 H   0  0  0  0  0  0  0  0  0  0  0  0
    8.5309   -1.6286    3.7757 H   0  0  0  0  0  0  0  0  0  0  0  0
    8.6850   -2.3257    2.1462 H   0  0  0  0  0  0  0  0  0  0  0  0
    4.3868   -2.1234    4.4994 H   0  0  0  0  0  0  0  0  0  0  0  0
    5.9323   -1.7322    5.2893 H   0  0  0  0  0  0  0  0  0  0  0  0
    5.2129   -0.5883    4.1366 H   0  0  0  0  0  0  0  0  0  0  0  0
    5.6042   -4.8505    3.4949 H   0  0  0  0  0  0  0  0  0  0  0  0
    7.1549   -4.8469    2.6199 H   0  0  0  0  0  0  0  0  0  0  0  0
    7.1104   -4.4260    4.3461 H   0  0  0  0  0  0  0  0  0  0  0  0
    8.0778   -4.5229   -1.7112 H   0  0  0  0  0  0  0  0  0  0  0  0
    8.0206   -4.4376   -3.4830 H   0  0  0  0  0  0  0  0  0  0  0  0
    8.1388   -2.9395   -2.5286 H   0  0  0  0  0  0  0  0  0  0  0  0
    4.0062   -5.5857   -2.6129 H   0  0  0  0  0  0  0  0  0  0  0  0
    5.4492   -6.1210   -3.5113 H   0  0  0  0  0  0  0  0  0  0  0  0
    5.4356   -6.1778   -1.7311 H   0  0  0  0  0  0  0  0  0  0  0  0
    4.1475   -2.8352   -4.1666 H   0  0  0  0  0  0  0  0  0  0  0  0
    5.6655   -1.9048   -4.1295 H   0  0  0  0  0  0  0  0  0  0  0  0
    5.5840   -3.4499   -5.0131 H   0  0  0  0  0  0  0  0  0  0  0  0
    0.9787    1.8273   -1.6191 H   0  0  0  0  0  0  0  0  0  0  0  0
    3.9896    4.8546   -1.0530 H   0  0  0  0  0  0  0  0  0  0  0  0
    4.4498    0.9854    0.7661 H   0  0  0  0  0  0  0  0  0  0  0  0
    5.9690    1.9598    2.7774 H   0  0  0  0  0  0  0  0  0  0  0  0
    6.6237    3.5552    3.2130 H   0  0  0  0  0  0  0  0  0  0  0  0
    4.8639    3.3289    3.0401 H   0  0  0  0  0  0  0  0  0  0  0  0
    7.4960    2.9062   -1.0499 H   0  0  0  0  0  0  0  0  0  0  0  0
    8.3742    2.9801    0.4993 H   0  0  0  0  0  0  0  0  0  0  0  0
    7.3581    1.5669    0.1122 H   0  0  0  0  0  0  0  0  0  0  0  0
    6.2799    5.7029   -0.3889 H   0  0  0  0  0  0  0  0  0  0  0  0
    5.2772    5.9132    1.0725 H   0  0  0  0  0  0  0  0  0  0  0  0
    7.0385    5.7013    1.2181 H   0  0  0  0  0  0  0  0  0  0  0  0
    1.0792    6.1751   -0.6710 H   0  0  0  0  0  0  0  0  0  0  0  0
   -0.0721    6.5539   -1.9843 H   0  0  0  0  0  0  0  0  0  0  0  0
   -0.3576    5.1544   -0.9082 H   0  0  0  0  0  0  0  0  0  0  0  0
    3.3389    5.1511   -4.1422 H   0  0  0  0  0  0  0  0  0  0  0  0
    2.0572    6.3885   -4.1922 H   0  0  0  0  0  0  0  0  0  0  0  0
    3.2170    6.3717   -2.8499 H   0  0  0  0  0  0  0  0  0  0  0  0
    1.0177    3.0072   -4.3921 H   0  0  0  0  0  0  0  0  0  0  0  0
   -0.3258    2.9785   -3.2278 H   0  0  0  0  0  0  0  0  0  0  0  0
   -0.2053    4.3036   -4.4108 H   0  0  0  0  0  0  0  0  0  0  0  0
  1  2  2  0  0  0  0
  1  6  1  0  0  0  0
  1  7  1  0  0  0  0
  2  3  1  0  0  0  0
  2 17  1  0  0  0  0
  3  4  2  0  0  0  0
  3 75  1  0  0  0  0
  4  5  1  0  0  0  0
  4 76  1  0  0  0  0
  5  6  2  0  0  0  0
  5 77  1  0  0  0  0
  6 15  1  0  0  0  0
  7  8  2  0  0  0  0
  7 12  1  0  0  0  0
  8  9  1  0  0  0  0
  8 46  1  0  0  0  0
  9 10  2  0  0  0  0
  9 78  1  0  0  0  0
 10 11  1  0  0  0  0
 10 79  1  0  0  0  0
 11 12  2  0  0  0  0
 11 80  1  0  0  0  0
 12 13  1  0  0  0  0
 13 14  1  0  0  0  0
 14 81  1  0  0  0  0
 14 82  1  0  0  0  0
 14 83  1  0  0  0  0
 15 16  1  0  0  0  0
 16 84  1  0  0  0  0
 16 85  1  0  0  0  0
 16 86  1  0  0  0  0
 17 18  1  0  0  0  0
 17 32  1  0  0  0  0
 18 19  2  0  0  0  0
 18 23  1  0  0  0  0
 19 20  1  0  0  0  0
 19 87  1  0  0  0  0
 20 21  2  0  0  0  0
 20 28  1  0  0  0  0
 21 22  1  0  0  0  0
 21 88  1  0  0  0  0
 22 23  2  0  0  0  0
 22 24  1  0  0  0  0
 23 89  1  0  0  0  0
 24 25  1  0  0  0  0
 24 26  1  0  0  0  0
 24 27  1  0  0  0  0
 25 90  1  0  0  0  0
 25 91  1  0  0  0  0
 25 92  1  0  0  0  0
 26 93  1  0  0  0  0
 26 94  1  0  0  0  0
 26 95  1  0  0  0  0
 27 96  1  0  0  0  0
 27 97  1  0  0  0  0
 27 98  1  0  0  0  0
 28 29  1  0  0  0  0
 28 30  1  0  0  0  0
 28 31  1  0  0  0  0
 29 99  1  0  0  0  0
 29100  1  0  0  0  0
 29101  1  0  0  0  0
 30102  1  0  0  0  0
 30103  1  0  0  0  0
 30104  1  0  0  0  0
 31105  1  0  0  0  0
 31106  1  0  0  0  0
 31107  1  0  0  0  0
 32 33  2  0  0  0  0
 32 37  1  0  0  0  0
 33 34  1  0  0  0  0
 33108  1  0  0  0  0
 34 35  2  0  0  0  0
 34 42  1  0  0  0  0
 35 36  1  0  0  0  0
 35109  1  0  0  0  0
 36 37  2  0  0  0  0
 36 38  1  0  0  0  0
 37110  1  0  0  0  0
 38 39  1  0  0  0  0
 38 40  1  0  0  0  0
 38 41  1  0  0  0  0
 39111  1  0  0  0  0
 39112  1  0  0  0  0
 39113  1  0  0  0  0
 40114  1  0  0  0  0
 40115  1  0  0  0  0
 40116  1  0  0  0  0
 41117  1  0  0  0  0
 41118  1  0  0  0  0
 41119  1  0  0  0  0
 42 43  1  0  0  0  0
 42 44  1  0  0  0  0
 42 45  1  0  0  0  0
 43120  1  0  0  0  0
 43121  1  0  0  0  0
 43122  1  0  0  0  0
 44123  1  0  0  0  0
 44124  1  0  0  0  0
 44125  1  0  0  0  0
 45126  1  0  0  0  0
 45127  1  0  0  0  0
 45128  1  0  0  0  0
 46 47  1  0  0  0  0
 46 61  1  0  0  0  0
 47 48  2  0  0  0  0
 47 52  1  0  0  0  0
 48 49  1  0  0  0  0
 48129  1  0  0  0  0
 49 50  2  0  0  0  0
 49 57  1  0  0  0  0
 50 51  1  0  0  0  0
 50130  1  0  0  0  0
 51 52  2  0  0  0  0
 51 53  1  0  0  0  0
 52131  1  0  0  0  0
 53 54  1  0  0  0  0
 53 55  1  0  0  0  0
 53 56  1  0  0  0  0
 54132  1  0  0  0  0
 54133  1  0  0  0  0
 54134  1  0  0  0  0
 55135  1  0  0  0  0
 55136  1  0  0  0  0
 55137  1  0  0  0  0
 56138  1  0  0  0  0
 56139  1  0  0  0  0
 56140  1  0  0  0  0
 57 58  1  0  0  0  0
 57 59  1  0  0  0  0
 57 60  1  0  0  0  0
 58141  1  0  0  0  0
 58142  1  0  0  0  0
 58143  1  0  0  0  0
 59144  1  0  0  0  0
 59145  1  0  0  0  0
 59146  1  0  0  0  0
 60147  1  0  0  0  0
 60148  1  0  0  0  0
 60149  1  0  0  0  0
 61 62  2  0  0  0  0
 61 66  1  0  0  0  0
 62 63  1  0  0  0  0
 62150  1  0  0  0  0
 63 64  2  0  0  0  0
 63 71  1  0  0  0  0
 64 65  1  0  0  0  0
 64151  1  0  0  0  0
 65 66  2  0  0  0  0
 65 67  1  0  0  0  0
 66152  1  0  0  0  0
 67 68  1  0  0  0  0
 67 69  1  0  0  0  0
 67 70  1  0  0  0  0
 68153  1  0  0  0  0
 68154  1  0  0  0  0
 68155  1  0  0  0  0
 69156  1  0  0  0  0
 69157  1  0  0  0  0
 69158  1  0  0  0  0
 70159  1  0  0  0  0
 70160  1  0  0  0  0
 70161  1  0  0  0  0
 71 72  1  0  0  0  0
 71 73  1  0  0  0  0
 71 74  1  0  0  0  0
 72162  1  0  0  0  0
 72163  1  0  0  0  0
 72164  1  0  0  0  0
 73165  1  0  0  0  0
 73166  1  0  0  0  0
 73167  1  0  0  0  0
 74168  1  0  0  0  0
 74169  1  0  0  0  0
 74170  1  0  0  0  0
M  END
$$$$
