Title Card Required
 OpenBabel03192317573D

 53 57  0  0  1  0  0  0  0  0999 V2000
   -1.1844    1.4501    0.1713 C   0  0  0  0  0  0  0  0  0  0  0  0
   -1.1257    0.0516    0.1631 C   0  0  0  0  0  0  0  0  0  0  0  0
    0.0002   -0.6350   -0.0003 N   0  0  0  0  0  0  0  0  0  0  0  0
    1.1262    0.0514   -0.1641 C   0  0  0  0  0  0  0  0  0  0  0  0
    1.1850    1.4499   -0.1731 C   0  0  0  0  0  0  0  0  0  0  0  0
    0.0003    2.1578   -0.0011 C   0  0  0  0  0  0  0  0  0  0  0  0
   -2.3864   -0.7124    0.3459 C   0  0  0  0  0  0  0  0  0  0  0  0
    2.3869   -0.7127   -0.3466 C   0  0  0  0  0  0  0  0  0  0  0  0
   -2.2817   -2.0472    0.4629 O   0  0  0  0  0  0  0  0  0  0  0  0
   -3.6167   -2.5451    0.5557 C   0  0  0  0  0  0  0  0  0  0  0  0
   -4.4941   -1.2686    0.6168 C   0  0  1  0  0  0  0  0  0  0  0  0
   -3.5387   -0.1826    0.4116 N   0  0  0  0  0  0  0  0  0  0  0  0
    3.5392   -0.1829   -0.4130 N   0  0  0  0  0  0  0  0  0  0  0  0
    4.4945   -1.2691   -0.6170 C   0  0  2  0  0  0  0  0  0  0  0  0
    3.6171   -2.5456   -0.5558 C   0  0  0  0  0  0  0  0  0  0  0  0
    2.2822   -2.0476   -0.4621 O   0  0  0  0  0  0  0  0  0  0  0  0
   -5.6143   -1.2573   -0.4295 C   0  0  0  0  0  0  0  0  0  0  0  0
    5.6139   -1.2572    0.4303 C   0  0  0  0  0  0  0  0  0  0  0  0
    6.5120   -0.0502    0.3319 C   0  0  0  0  0  0  0  0  0  0  0  0
   -6.5124   -0.0504   -0.3310 C   0  0  0  0  0  0  0  0  0  0  0  0
    6.0941    1.1919    0.8255 C   0  0  0  0  0  0  0  0  0  0  0  0
    6.9118    2.3130    0.7112 C   0  0  0  0  0  0  0  0  0  0  0  0
    8.1611    2.2130    0.0975 C   0  0  0  0  0  0  0  0  0  0  0  0
    8.5858    0.9832   -0.4005 C   0  0  0  0  0  0  0  0  0  0  0  0
    7.7649   -0.1382   -0.2827 C   0  0  0  0  0  0  0  0  0  0  0  0
   -6.0947    1.1917   -0.8248 C   0  0  0  0  0  0  0  0  0  0  0  0
   -6.9125    2.3127   -0.7105 C   0  0  0  0  0  0  0  0  0  0  0  0
   -8.1617    2.2127   -0.0967 C   0  0  0  0  0  0  0  0  0  0  0  0
   -8.5863    0.9829    0.4014 C   0  0  0  0  0  0  0  0  0  0  0  0
   -7.7654   -0.1385    0.2837 C   0  0  0  0  0  0  0  0  0  0  0  0
   -2.1490    1.9371    0.3137 H   0  0  0  0  0  0  0  0  0  0  0  0
    2.1496    1.9368   -0.3157 H   0  0  0  0  0  0  0  0  0  0  0  0
    0.0003    3.2485   -0.0014 H   0  0  0  0  0  0  0  0  0  0  0  0
   -3.6949   -3.1814    1.4464 H   0  0  0  0  0  0  0  0  0  0  0  0
   -3.8284   -3.1526   -0.3386 H   0  0  0  0  0  0  0  0  0  0  0  0
   -4.9548   -1.1413    1.6110 H   0  0  0  0  0  0  0  0  0  0  0  0
    4.9561   -1.1424   -1.6109 H   0  0  0  0  0  0  0  0  0  0  0  0
    3.6948   -3.1814   -1.4470 H   0  0  0  0  0  0  0  0  0  0  0  0
    3.8292   -3.1535    0.3380 H   0  0  0  0  0  0  0  0  0  0  0  0
   -5.1461   -1.3074   -1.4260 H   0  0  0  0  0  0  0  0  0  0  0  0
   -6.2121   -2.1739   -0.3036 H   0  0  0  0  0  0  0  0  0  0  0  0
    5.1449   -1.3067    1.4264 H   0  0  0  0  0  0  0  0  0  0  0  0
    6.2119   -2.1738    0.3054 H   0  0  0  0  0  0  0  0  0  0  0  0
    5.1114    1.2730    1.2929 H   0  0  0  0  0  0  0  0  0  0  0  0
    6.5722    3.2730    1.1040 H   0  0  0  0  0  0  0  0  0  0  0  0
    8.8025    3.0916    0.0119 H   0  0  0  0  0  0  0  0  0  0  0  0
    9.5625    0.8928   -0.8790 H   0  0  0  0  0  0  0  0  0  0  0  0
    8.1070   -1.1019   -0.6691 H   0  0  0  0  0  0  0  0  0  0  0  0
   -5.1120    1.2728   -1.2921 H   0  0  0  0  0  0  0  0  0  0  0  0
   -6.5730    3.2727   -1.1034 H   0  0  0  0  0  0  0  0  0  0  0  0
   -8.8032    3.0912   -0.0111 H   0  0  0  0  0  0  0  0  0  0  0  0
   -9.5630    0.8924    0.8800 H   0  0  0  0  0  0  0  0  0  0  0  0
   -8.1073   -1.1022    0.6701 H   0  0  0  0  0  0  0  0  0  0  0  0
  1  2  2  0  0  0  0
  1  6  1  0  0  0  0
  1 31  1  0  0  0  0
  2  3  1  0  0  0  0
  2  7  1  0  0  0  0
  3  4  2  0  0  0  0
  4  5  1  0  0  0  0
  4  8  1  0  0  0  0
  5  6  2  0  0  0  0
  5 32  1  0  0  0  0
  6 33  1  0  0  0  0
  7  9  1  0  0  0  0
  7 12  2  0  0  0  0
  8 13  2  0  0  0  0
  8 16  1  0  0  0  0
  9 10  1  0  0  0  0
 10 11  1  0  0  0  0
 10 34  1  0  0  0  0
 10 35  1  0  0  0  0
 11 12  1  0  0  0  0
 11 17  1  0  0  0  0
 11 36  1  1  0  0  0
 13 14  1  0  0  0  0
 14 15  1  0  0  0  0
 14 18  1  0  0  0  0
 14 37  1  6  0  0  0
 15 16  1  0  0  0  0
 15 38  1  0  0  0  0
 15 39  1  0  0  0  0
 17 20  1  0  0  0  0
 17 40  1  0  0  0  0
 17 41  1  0  0  0  0
 18 19  1  0  0  0  0
 18 42  1  0  0  0  0
 18 43  1  0  0  0  0
 19 21  2  0  0  0  0
 19 25  1  0  0  0  0
 20 26  2  0  0  0  0
 20 30  1  0  0  0  0
 21 22  1  0  0  0  0
 21 44  1  0  0  0  0
 22 23  2  0  0  0  0
 22 45  1  0  0  0  0
 23 24  1  0  0  0  0
 23 46  1  0  0  0  0
 24 25  2  0  0  0  0
 24 47  1  0  0  0  0
 25 48  1  0  0  0  0
 26 27  1  0  0  0  0
 26 49  1  0  0  0  0
 27 28  2  0  0  0  0
 27 50  1  0  0  0  0
 28 29  1  0  0  0  0
 28 51  1  0  0  0  0
 29 30  2  0  0  0  0
 29 52  1  0  0  0  0
 30 53  1  0  0  0  0
M  END
$$$$
