Title Card Required
 OpenBabel03192317463D

 33 36  0  0  1  0  0  0  0  0999 V2000
    0.2338   -1.3367    0.6232 O   0  0  0  0  0  0  0  0  0  0  0  0
    0.5958   -0.0450    0.7468 C   0  0  0  0  0  0  0  0  0  0  0  0
   -0.2366    0.7775    1.2423 N   0  0  0  0  0  0  0  0  0  0  0  0
   -1.4605    0.0187    1.4858 C   0  0  2  0  0  0  0  0  0  0  0  0
   -1.0722   -1.4633    1.1965 C   0  0  1  0  0  0  0  0  0  0  0  0
   -2.0795   -2.0239    0.1828 C   0  0  0  0  0  0  0  0  0  0  0  0
   -2.8505   -0.8133   -0.2894 C   0  0  0  0  0  0  0  0  0  0  0  0
   -3.7957   -0.7323   -1.3114 C   0  0  0  0  0  0  0  0  0  0  0  0
   -4.4068    0.4935   -1.5743 C   0  0  0  0  0  0  0  0  0  0  0  0
   -4.0765    1.6286   -0.8273 C   0  0  0  0  0  0  0  0  0  0  0  0
   -3.1309    1.5493    0.1940 C   0  0  0  0  0  0  0  0  0  0  0  0
   -2.5306    0.3210    0.4589 C   0  0  0  0  0  0  0  0  0  0  0  0
    1.9605    0.3181    0.2848 C   0  0  0  0  0  0  0  0  0  0  0  0
    2.3571    1.6579    0.3569 C   0  0  0  0  0  0  0  0  0  0  0  0
    3.6369    1.9747   -0.0795 C   0  0  0  0  0  0  0  0  0  0  0  0
    4.4550    0.9562   -0.5633 C   0  0  0  0  0  0  0  0  0  0  0  0
    3.9664   -0.3559   -0.5957 C   0  0  0  0  0  0  0  0  0  0  0  0
    2.7365   -0.6574   -0.1752 N   0  0  0  0  0  0  0  0  0  0  0  0
    4.8006   -1.4990   -1.1047 C   0  0  0  0  0  0  0  0  0  0  0  0
   -1.8174    0.1940    2.5120 H   0  0  0  0  0  0  0  0  0  0  0  0
   -0.9809   -2.0886    2.0954 H   0  0  0  0  0  0  0  0  0  0  0  0
   -1.5499   -2.5411   -0.6301 H   0  0  0  0  0  0  0  0  0  0  0  0
   -2.7484   -2.7566    0.6600 H   0  0  0  0  0  0  0  0  0  0  0  0
   -4.0524   -1.6146   -1.9013 H   0  0  0  0  0  0  0  0  0  0  0  0
   -5.1467    0.5698   -2.3728 H   0  0  0  0  0  0  0  0  0  0  0  0
   -4.5592    2.5816   -1.0494 H   0  0  0  0  0  0  0  0  0  0  0  0
   -2.8539    2.4324    0.7727 H   0  0  0  0  0  0  0  0  0  0  0  0
    1.6608    2.3997    0.7463 H   0  0  0  0  0  0  0  0  0  0  0  0
    3.9961    3.0045   -0.0452 H   0  0  0  0  0  0  0  0  0  0  0  0
    5.4656    1.1687   -0.9148 H   0  0  0  0  0  0  0  0  0  0  0  0
    4.2809   -1.9981   -1.9344 H   0  0  0  0  0  0  0  0  0  0  0  0
    5.7869   -1.1634   -1.4481 H   0  0  0  0  0  0  0  0  0  0  0  0
    4.9326   -2.2471   -0.3104 H   0  0  0  0  0  0  0  0  0  0  0  0
  1  2  1  0  0  0  0
  1  5  1  0  0  0  0
  2  3  2  0  0  0  0
  2 13  1  0  0  0  0
  3  4  1  0  0  0  0
  4  5  1  0  0  0  0
  4 12  1  0  0  0  0
  4 20  1  1  0  0  0
  5  6  1  0  0  0  0
  5 21  1  1  0  0  0
  6  7  1  0  0  0  0
  6 22  1  0  0  0  0
  6 23  1  0  0  0  0
  7  8  2  0  0  0  0
  7 12  1  0  0  0  0
  8  9  1  0  0  0  0
  8 24  1  0  0  0  0
  9 10  2  0  0  0  0
  9 25  1  0  0  0  0
 10 11  1  0  0  0  0
 10 26  1  0  0  0  0
 11 12  2  0  0  0  0
 11 27  1  0  0  0  0
 13 14  2  0  0  0  0
 13 18  1  0  0  0  0
 14 15  1  0  0  0  0
 14 28  1  0  0  0  0
 15 16  2  0  0  0  0
 15 29  1  0  0  0  0
 16 17  1  0  0  0  0
 16 30  1  0  0  0  0
 17 18  2  0  0  0  0
 17 19  1  0  0  0  0
 19 31  1  0  0  0  0
 19 32  1  0  0  0  0
 19 33  1  0  0  0  0
M  END
$$$$
