Title Card Required
 OpenBabel03192317423D

 45 47  0  0  1  0  0  0  0  0999 V2000
    4.6930    1.7327    0.8871 C   0  0  0  0  0  0  0  0  0  0  0  0
   -4.0392   -0.1796    2.7009 C   0  0  0  0  0  0  0  0  0  0  0  0
    3.8970   -0.4484    0.5233 C   0  0  0  0  0  0  0  0  0  0  0  0
    4.0710   -1.8415    0.6477 C   0  0  0  0  0  0  0  0  0  0  0  0
    3.0659   -2.6535    0.1597 C   0  0  0  0  0  0  0  0  0  0  0  0
    1.9289   -2.0814   -0.4288 C   0  0  0  0  0  0  0  0  0  0  0  0
    1.8640   -0.6963   -0.4895 C   0  0  0  0  0  0  0  0  0  0  0  0
   -1.2907   -1.1779   -1.0805 C   0  0  0  0  0  0  0  0  0  0  0  0
   -2.1171   -2.2240   -1.4940 C   0  0  0  0  0  0  0  0  0  0  0  0
   -3.2424   -2.4942   -0.7232 C   0  0  0  0  0  0  0  0  0  0  0  0
   -3.5495   -1.7566    0.4249 C   0  0  0  0  0  0  0  0  0  0  0  0
   -2.7063   -0.7077    0.8150 C   0  0  0  0  0  0  0  0  0  0  0  0
   -1.5707   -0.4119    0.0504 C   0  0  0  0  0  0  0  0  0  0  0  0
    0.6760    0.0341   -1.0664 C   0  0  2  0  0  0  0  0  0  0  0  0
    4.8762    0.3355    0.9935 O   0  0  0  0  0  0  0  0  0  0  0  0
    2.8339    0.1028   -0.0253 N   0  0  0  0  0  0  0  0  0  0  0  0
   -0.3097    0.8828    0.3260 P   0  0  1  0  0  0  0  0  0  0  0  0
   -0.1751   -0.8543   -1.7744 O   0  0  0  0  0  0  0  0  0  0  0  0
   -2.9188    0.0757    1.8943 O   0  0  0  0  0  0  0  0  0  0  0  0
   -2.1895    2.8970    0.2496 C   0  0  0  0  0  0  0  0  0  0  0  0
    0.0532    3.3866   -0.7578 C   0  0  0  0  0  0  0  0  0  0  0  0
   -1.6136    1.9771   -2.0036 C   0  0  0  0  0  0  0  0  0  0  0  0
   -1.0616    2.3433   -0.6270 C   0  0  0  0  0  0  0  0  0  0  0  0
    5.5856    2.1899    1.3275 H   0  0  0  0  0  0  0  0  0  0  0  0
    3.7913    2.0538    1.4280 H   0  0  0  0  0  0  0  0  0  0  0  0
    4.5876    2.0380   -0.1638 H   0  0  0  0  0  0  0  0  0  0  0  0
   -4.9780   -0.0670    2.1338 H   0  0  0  0  0  0  0  0  0  0  0  0
   -4.0002   -1.1929    3.1327 H   0  0  0  0  0  0  0  0  0  0  0  0
   -4.0163    0.5577    3.5108 H   0  0  0  0  0  0  0  0  0  0  0  0
    4.9752   -2.2286    1.1149 H   0  0  0  0  0  0  0  0  0  0  0  0
    3.1574   -3.7387    0.2321 H   0  0  0  0  0  0  0  0  0  0  0  0
    1.1218   -2.6902   -0.8324 H   0  0  0  0  0  0  0  0  0  0  0  0
   -1.8695   -2.7968   -2.3866 H   0  0  0  0  0  0  0  0  0  0  0  0
   -3.9064   -3.3090   -1.0168 H   0  0  0  0  0  0  0  0  0  0  0  0
   -4.4384   -2.0065    1.0007 H   0  0  0  0  0  0  0  0  0  0  0  0
    1.0484    0.7961   -1.7669 H   0  0  0  0  0  0  0  0  0  0  0  0
   -1.8254    3.1661    1.2529 H   0  0  0  0  0  0  0  0  0  0  0  0
   -2.6129    3.8018   -0.2168 H   0  0  0  0  0  0  0  0  0  0  0  0
   -2.9975    2.1605    0.3703 H   0  0  0  0  0  0  0  0  0  0  0  0
    0.8999    3.0116   -1.3542 H   0  0  0  0  0  0  0  0  0  0  0  0
   -0.3350    4.2880   -1.2593 H   0  0  0  0  0  0  0  0  0  0  0  0
    0.4410    3.6827    0.2287 H   0  0  0  0  0  0  0  0  0  0  0  0
   -0.8384    1.5725   -2.6709 H   0  0  0  0  0  0  0  0  0  0  0  0
   -2.4184    1.2308   -1.9259 H   0  0  0  0  0  0  0  0  0  0  0  0
   -2.0329    2.8769   -2.4840 H   0  0  0  0  0  0  0  0  0  0  0  0
  1 15  1  0  0  0  0
  1 24  1  0  0  0  0
  1 25  1  0  0  0  0
  1 26  1  0  0  0  0
  2 19  1  0  0  0  0
  2 27  1  0  0  0  0
  2 28  1  0  0  0  0
  2 29  1  0  0  0  0
  3  4  1  0  0  0  0
  3 15  1  0  0  0  0
  3 16  2  0  0  0  0
  4  5  2  0  0  0  0
  4 30  1  0  0  0  0
  5  6  1  0  0  0  0
  5 31  1  0  0  0  0
  6  7  2  0  0  0  0
  6 32  1  0  0  0  0
  7 14  1  0  0  0  0
  7 16  1  0  0  0  0
  8  9  2  0  0  0  0
  8 13  1  0  0  0  0
  8 18  1  0  0  0  0
  9 10  1  0  0  0  0
  9 33  1  0  0  0  0
 10 11  2  0  0  0  0
 10 34  1  0  0  0  0
 11 12  1  0  0  0  0
 11 35  1  0  0  0  0
 12 13  2  0  0  0  0
 12 19  1  0  0  0  0
 13 17  1  0  0  0  0
 14 17  1  0  0  0  0
 14 18  1  0  0  0  0
 14 36  1  6  0  0  0
 17 23  1  6  0  0  0
 20 23  1  0  0  0  0
 20 37  1  0  0  0  0
 20 38  1  0  0  0  0
 20 39  1  0  0  0  0
 21 23  1  0  0  0  0
 21 40  1  0  0  0  0
 21 41  1  0  0  0  0
 21 42  1  0  0  0  0
 22 23  1  0  0  0  0
 22 43  1  0  0  0  0
 22 44  1  0  0  0  0
 22 45  1  0  0  0  0
M  END
$$$$
