Title Card Required
 OpenBabel03192317433D

 92100  0  0  1  0  0  0  0  0999 V2000
   -3.6811    3.8500   -1.6269 C   0  0  0  0  0  0  0  0  0  0  0  0
   -2.3355    4.3911   -1.1084 C   0  0  0  0  0  0  0  0  0  0  0  0
   -1.9647    2.9674   -0.8083 C   0  0  0  0  0  0  0  0  0  0  0  0
   -3.2214    2.5132   -1.2027 C   0  0  0  0  0  0  0  0  0  0  0  0
   -4.6733    4.2461   -2.1697 O   0  0  0  0  0  0  0  0  0  0  0  0
   -1.7648    5.4398   -1.0056 O   0  0  0  0  0  0  0  0  0  0  0  0
   -3.9132    1.3543   -1.3679 N   0  0  0  0  0  0  0  0  0  0  0  0
   -3.7304    0.1374   -0.7280 C   0  0  0  0  0  0  0  0  0  0  0  0
   -2.9343    0.0062    0.4156 C   0  0  0  0  0  0  0  0  0  0  0  0
   -2.7815   -1.2497    1.0065 C   0  0  0  0  0  0  0  0  0  0  0  0
   -3.4341   -2.3728    0.5214 C   0  0  0  0  0  0  0  0  0  0  0  0
   -4.2400   -2.2250   -0.6095 C   0  0  0  0  0  0  0  0  0  0  0  0
   -4.3844   -0.9989   -1.2380 C   0  0  0  0  0  0  0  0  0  0  0  0
   -4.8759   -3.4531   -1.2058 C   0  0  0  0  0  0  0  0  0  0  0  0
   -5.3902   -4.2443   -0.2677 F   0  0  0  0  0  0  0  0  0  0  0  0
   -5.8437   -3.1486   -2.0668 F   0  0  0  0  0  0  0  0  0  0  0  0
   -3.9661   -4.1786   -1.8732 F   0  0  0  0  0  0  0  0  0  0  0  0
   -1.8287   -1.3763    2.1653 C   0  0  0  0  0  0  0  0  0  0  0  0
   -2.1191   -0.5106    3.1409 F   0  0  0  0  0  0  0  0  0  0  0  0
   -1.8243   -2.5950    2.6889 F   0  0  0  0  0  0  0  0  0  0  0  0
   -0.5769   -1.1021    1.7699 F   0  0  0  0  0  0  0  0  0  0  0  0
   -0.8071    2.4767   -0.3578 N   0  0  0  0  0  0  0  0  0  0  0  0
    0.1172    3.3138    0.4064 C   0  0  2  0  0  0  0  0  0  0  0  0
    1.5638    2.7924    0.2028 C   0  0  2  0  0  0  0  0  0  0  0  0
    2.2729    3.3847   -1.0101 C   0  0  0  0  0  0  0  0  0  0  0  0
    3.6395    3.1084   -1.1522 C   0  0  0  0  0  0  0  0  0  0  0  0
    4.3599    3.5962   -2.2369 C   0  0  0  0  0  0  0  0  0  0  0  0
    3.7198    4.3716   -3.2060 C   0  0  0  0  0  0  0  0  0  0  0  0
    2.3622    4.6486   -3.0769 C   0  0  0  0  0  0  0  0  0  0  0  0
    1.6399    4.1585   -1.9860 C   0  0  0  0  0  0  0  0  0  0  0  0
   -0.2773    3.3696    1.8712 C   0  0  0  0  0  0  0  0  0  0  0  0
   -0.4179    4.6085    2.5009 C   0  0  0  0  0  0  0  0  0  0  0  0
   -0.7630    4.6821    3.8507 C   0  0  0  0  0  0  0  0  0  0  0  0
   -0.9782    3.5152    4.5813 C   0  0  0  0  0  0  0  0  0  0  0  0
   -0.8514    2.2736    3.9569 C   0  0  0  0  0  0  0  0  0  0  0  0
   -0.5027    2.2017    2.6097 C   0  0  0  0  0  0  0  0  0  0  0  0
    1.5781    1.3315    0.2059 N   0  0  0  0  0  0  0  0  0  0  0  0
    1.6717    0.6539   -1.0843 C   0  0  0  0  0  0  0  0  0  0  0  0
    1.0965   -0.7344   -0.9660 C   0  0  0  0  0  0  0  0  0  0  0  0
    1.7929   -1.7087   -0.2665 C   0  0  0  0  0  0  0  0  0  0  0  0
    3.1714   -1.3790    0.2087 C   0  0  0  0  0  0  0  0  0  0  0  0
    3.3609   -0.2370    0.9747 C   0  0  0  0  0  0  0  0  0  0  0  0
    2.1645    0.6137    1.3422 C   0  0  0  0  0  0  0  0  0  0  0  0
   -0.1703   -1.0227   -1.5355 C   0  0  0  0  0  0  0  0  0  0  0  0
   -0.7404   -2.2605   -1.3902 C   0  0  0  0  0  0  0  0  0  0  0  0
   -0.1056   -3.2498   -0.5935 C   0  0  0  0  0  0  0  0  0  0  0  0
   -0.7338   -4.5018   -0.3446 C   0  0  0  0  0  0  0  0  0  0  0  0
   -0.1449   -5.4307    0.4767 C   0  0  0  0  0  0  0  0  0  0  0  0
    1.1040   -5.1477    1.0827 C   0  0  0  0  0  0  0  0  0  0  0  0
    1.7448   -3.9560    0.8422 C   0  0  0  0  0  0  0  0  0  0  0  0
    1.1661   -2.9736   -0.0099 C   0  0  0  0  0  0  0  0  0  0  0  0
    4.6635    0.1330    1.3966 C   0  0  0  0  0  0  0  0  0  0  0  0
    5.7558   -0.6241    1.0597 C   0  0  0  0  0  0  0  0  0  0  0  0
    5.6076   -1.7769    0.2446 C   0  0  0  0  0  0  0  0  0  0  0  0
    6.7370   -2.5455   -0.1521 C   0  0  0  0  0  0  0  0  0  0  0  0
    6.5956   -3.6271   -0.9838 C   0  0  0  0  0  0  0  0  0  0  0  0
    5.3119   -3.9811   -1.4661 C   0  0  0  0  0  0  0  0  0  0  0  0
    4.2009   -3.2659   -1.0908 C   0  0  0  0  0  0  0  0  0  0  0  0
    4.3075   -2.1534   -0.2070 C   0  0  0  0  0  0  0  0  0  0  0  0
   -4.7460    1.4565   -1.9418 H   0  0  0  0  0  0  0  0  0  0  0  0
   -2.4580    0.8809    0.8652 H   0  0  0  0  0  0  0  0  0  0  0  0
   -3.3044   -3.3443    0.9986 H   0  0  0  0  0  0  0  0  0  0  0  0
   -5.0080   -0.9161   -2.1298 H   0  0  0  0  0  0  0  0  0  0  0  0
   -0.6672    1.4741   -0.2452 H   0  0  0  0  0  0  0  0  0  0  0  0
    0.0380    4.3352    0.0163 H   0  0  0  0  0  0  0  0  0  0  0  0
    2.1314    3.1320    1.0830 H   0  0  0  0  0  0  0  0  0  0  0  0
    4.1367    2.4870   -0.4005 H   0  0  0  0  0  0  0  0  0  0  0  0
    5.4237    3.3720   -2.3282 H   0  0  0  0  0  0  0  0  0  0  0  0
    4.2804    4.7571   -4.0588 H   0  0  0  0  0  0  0  0  0  0  0  0
    1.8524    5.2531   -3.8286 H   0  0  0  0  0  0  0  0  0  0  0  0
    0.5771    4.3958   -1.9116 H   0  0  0  0  0  0  0  0  0  0  0  0
   -0.2707    5.5240    1.9228 H   0  0  0  0  0  0  0  0  0  0  0  0
   -0.8751    5.6565    4.3288 H   0  0  0  0  0  0  0  0  0  0  0  0
   -1.2542    3.5715    5.6353 H   0  0  0  0  0  0  0  0  0  0  0  0
   -1.0313    1.3535    4.5144 H   0  0  0  0  0  0  0  0  0  0  0  0
   -0.3979    1.2264    2.1286 H   0  0  0  0  0  0  0  0  0  0  0  0
    1.0993    1.2339   -1.8203 H   0  0  0  0  0  0  0  0  0  0  0  0
    2.7118    0.6036   -1.4576 H   0  0  0  0  0  0  0  0  0  0  0  0
    2.4443    1.3499    2.1086 H   0  0  0  0  0  0  0  0  0  0  0  0
    1.4094   -0.0465    1.7971 H   0  0  0  0  0  0  0  0  0  0  0  0
   -0.6766   -0.2493   -2.1207 H   0  0  0  0  0  0  0  0  0  0  0  0
   -1.6996   -2.4959   -1.8572 H   0  0  0  0  0  0  0  0  0  0  0  0
   -1.6994   -4.7003   -0.8156 H   0  0  0  0  0  0  0  0  0  0  0  0
   -0.6371   -6.3853    0.6682 H   0  0  0  0  0  0  0  0  0  0  0  0
    1.5589   -5.8820    1.7491 H   0  0  0  0  0  0  0  0  0  0  0  0
    2.7051   -3.7450    1.3150 H   0  0  0  0  0  0  0  0  0  0  0  0
    4.7840    1.0279    2.0119 H   0  0  0  0  0  0  0  0  0  0  0  0
    6.7545   -0.3444    1.4011 H   0  0  0  0  0  0  0  0  0  0  0  0
    7.7226   -2.2481    0.2122 H   0  0  0  0  0  0  0  0  0  0  0  0
    7.4688   -4.2077   -1.2850 H   0  0  0  0  0  0  0  0  0  0  0  0
    5.2053   -4.8256   -2.1485 H   0  0  0  0  0  0  0  0  0  0  0  0
    3.2225   -3.5451   -1.4811 H   0  0  0  0  0  0  0  0  0  0  0  0
  1  2  1  0  0  0  0
  1  4  1  0  0  0  0
  1  5  2  0  0  0  0
  2  3  1  0  0  0  0
  2  6  2  0  0  0  0
  3  4  2  0  0  0  0
  3 22  1  0  0  0  0
  4  7  1  0  0  0  0
  7  8  1  0  0  0  0
  7 60  1  0  0  0  0
  8  9  2  0  0  0  0
  8 13  1  0  0  0  0
  9 10  1  0  0  0  0
  9 61  1  0  0  0  0
 10 11  2  0  0  0  0
 10 18  1  0  0  0  0
 11 12  1  0  0  0  0
 11 62  1  0  0  0  0
 12 13  2  0  0  0  0
 12 14  1  0  0  0  0
 13 63  1  0  0  0  0
 14 15  1  0  0  0  0
 14 16  1  0  0  0  0
 14 17  1  0  0  0  0
 18 19  1  0  0  0  0
 18 20  1  0  0  0  0
 18 21  1  0  0  0  0
 22 23  1  0  0  0  0
 22 64  1  0  0  0  0
 23 24  1  0  0  0  0
 23 31  1  0  0  0  0
 23 65  1  6  0  0  0
 24 25  1  0  0  0  0
 24 37  1  0  0  0  0
 24 66  1  1  0  0  0
 25 26  2  0  0  0  0
 25 30  1  0  0  0  0
 26 27  1  0  0  0  0
 26 67  1  0  0  0  0
 27 28  2  0  0  0  0
 27 68  1  0  0  0  0
 28 29  1  0  0  0  0
 28 69  1  0  0  0  0
 29 30  2  0  0  0  0
 29 70  1  0  0  0  0
 30 71  1  0  0  0  0
 31 32  2  0  0  0  0
 31 36  1  0  0  0  0
 32 33  1  0  0  0  0
 32 72  1  0  0  0  0
 33 34  2  0  0  0  0
 33 73  1  0  0  0  0
 34 35  1  0  0  0  0
 34 74  1  0  0  0  0
 35 36  2  0  0  0  0
 35 75  1  0  0  0  0
 36 76  1  0  0  0  0
 37 38  1  0  0  0  0
 37 43  1  0  0  0  0
 38 39  1  0  0  0  0
 38 77  1  0  0  0  0
 38 78  1  0  0  0  0
 39 40  2  0  0  0  0
 39 44  1  0  0  0  0
 40 41  1  0  0  0  0
 40 51  1  0  0  0  0
 41 42  2  0  0  0  0
 41 59  1  0  0  0  0
 42 43  1  0  0  0  0
 42 52  1  0  0  0  0
 43 79  1  0  0  0  0
 43 80  1  0  0  0  0
 44 45  2  0  0  0  0
 44 81  1  0  0  0  0
 45 46  1  0  0  0  0
 45 82  1  0  0  0  0
 46 47  2  0  0  0  0
 46 51  1  0  0  0  0
 47 48  1  0  0  0  0
 47 83  1  0  0  0  0
 48 49  2  0  0  0  0
 48 84  1  0  0  0  0
 49 50  1  0  0  0  0
 49 85  1  0  0  0  0
 50 51  2  0  0  0  0
 50 86  1  0  0  0  0
 52 53  2  0  0  0  0
 52 87  1  0  0  0  0
 53 54  1  0  0  0  0
 53 88  1  0  0  0  0
 54 55  2  0  0  0  0
 54 59  1  0  0  0  0
 55 56  1  0  0  0  0
 55 89  1  0  0  0  0
 56 57  2  0  0  0  0
 56 90  1  0  0  0  0
 57 58  1  0  0  0  0
 57 91  1  0  0  0  0
 58 59  2  0  0  0  0
 58 92  1  0  0  0  0
M  END
$$$$
