Title Card Required
 OpenBabel03192317483D

 41 43  0  0  1  0  0  0  0  0999 V2000
    0.1401    3.5959   -0.2291 C   0  0  0  0  0  0  0  0  0  0  0  0
    1.0216    2.3486   -0.3511 C   0  0  0  0  0  0  0  0  0  0  0  0
    0.0883    0.9560    0.5383 P   0  0  1  0  0  0  0  0  0  0  0  0
   -1.1862    0.4882   -0.7989 C   0  0  1  0  0  0  0  0  0  0  0  0
   -0.6143   -0.4594   -1.6898 O   0  0  0  0  0  0  0  0  0  0  0  0
    0.4809   -1.0688   -1.1780 C   0  0  0  0  0  0  0  0  0  0  0  0
    1.0237   -0.5116   -0.0208 C   0  0  0  0  0  0  0  0  0  0  0  0
    2.1463   -1.1080    0.5667 C   0  0  0  0  0  0  0  0  0  0  0  0
    2.6164   -0.5198    1.6877 O   0  0  0  0  0  0  0  0  0  0  0  0
    3.7186   -1.0964    2.3388 C   0  0  0  0  0  0  0  0  0  0  0  0
    2.7193   -2.2400   -0.0273 C   0  0  0  0  0  0  0  0  0  0  0  0
    2.1568   -2.7608   -1.1969 C   0  0  0  0  0  0  0  0  0  0  0  0
    1.0351   -2.1934   -1.7922 C   0  0  0  0  0  0  0  0  0  0  0  0
    1.3376    2.0582   -1.8175 C   0  0  0  0  0  0  0  0  0  0  0  0
    2.3269    2.5599    0.4237 C   0  0  0  0  0  0  0  0  0  0  0  0
   -2.4420   -0.0548   -0.1590 C   0  0  0  0  0  0  0  0  0  0  0  0
   -3.1579    0.8445    0.5162 N   0  0  0  0  0  0  0  0  0  0  0  0
   -4.2654    0.4392    1.1263 C   0  0  0  0  0  0  0  0  0  0  0  0
   -4.7173   -0.8816    1.0973 C   0  0  0  0  0  0  0  0  0  0  0  0
   -3.9693   -1.8146    0.3853 C   0  0  0  0  0  0  0  0  0  0  0  0
   -2.8079   -1.3989   -0.2619 C   0  0  0  0  0  0  0  0  0  0  0  0
   -1.4583    1.3876   -1.3705 H   0  0  0  0  0  0  0  0  0  0  0  0
   -0.8265    3.4693   -0.7415 H   0  0  0  0  0  0  0  0  0  0  0  0
    0.6503    4.4599   -0.6849 H   0  0  0  0  0  0  0  0  0  0  0  0
   -0.0685    3.8358    0.8243 H   0  0  0  0  0  0  0  0  0  0  0  0
    3.5042   -2.1322    2.6490 H   0  0  0  0  0  0  0  0  0  0  0  0
    4.6146   -1.0923    1.6963 H   0  0  0  0  0  0  0  0  0  0  0  0
    3.9115   -0.4868    3.2282 H   0  0  0  0  0  0  0  0  0  0  0  0
    3.5939   -2.7206    0.4066 H   0  0  0  0  0  0  0  0  0  0  0  0
    2.6125   -3.6423   -1.6511 H   0  0  0  0  0  0  0  0  0  0  0  0
    0.5904   -2.5974   -2.7005 H   0  0  0  0  0  0  0  0  0  0  0  0
    1.8775    2.9149   -2.2542 H   0  0  0  0  0  0  0  0  0  0  0  0
    1.9777    1.1692   -1.9205 H   0  0  0  0  0  0  0  0  0  0  0  0
    0.4296    1.8954   -2.4168 H   0  0  0  0  0  0  0  0  0  0  0  0
    2.8733    3.4191    0.0012 H   0  0  0  0  0  0  0  0  0  0  0  0
    2.1353    2.7640    1.4882 H   0  0  0  0  0  0  0  0  0  0  0  0
    2.9757    1.6738    0.3617 H   0  0  0  0  0  0  0  0  0  0  0  0
   -4.8294    1.2036    1.6699 H   0  0  0  0  0  0  0  0  0  0  0  0
   -5.6317   -1.1628    1.6198 H   0  0  0  0  0  0  0  0  0  0  0  0
   -4.2866   -2.8575    0.3315 H   0  0  0  0  0  0  0  0  0  0  0  0
   -2.1949   -2.0883   -0.8413 H   0  0  0  0  0  0  0  0  0  0  0  0
  1  2  1  0  0  0  0
  1 23  1  0  0  0  0
  1 24  1  0  0  0  0
  1 25  1  0  0  0  0
  2 14  1  0  0  0  0
  2 15  1  0  0  0  0
  3  2  1  6  0  0  0
  3  4  1  0  0  0  0
  3  7  1  0  0  0  0
  4  5  1  0  0  0  0
  4 16  1  0  0  0  0
  4 22  1  6  0  0  0
  5  6  1  0  0  0  0
  6  7  2  0  0  0  0
  6 13  1  0  0  0  0
  7  8  1  0  0  0  0
  8  9  1  0  0  0  0
  8 11  2  0  0  0  0
  9 10  1  0  0  0  0
 10 26  1  0  0  0  0
 10 27  1  0  0  0  0
 10 28  1  0  0  0  0
 11 12  1  0  0  0  0
 11 29  1  0  0  0  0
 12 13  2  0  0  0  0
 12 30  1  0  0  0  0
 13 31  1  0  0  0  0
 14 32  1  0  0  0  0
 14 33  1  0  0  0  0
 14 34  1  0  0  0  0
 15 35  1  0  0  0  0
 15 36  1  0  0  0  0
 15 37  1  0  0  0  0
 16 17  2  0  0  0  0
 16 21  1  0  0  0  0
 17 18  1  0  0  0  0
 18 19  2  0  0  0  0
 18 38  1  0  0  0  0
 19 20  1  0  0  0  0
 19 39  1  0  0  0  0
 20 21  2  0  0  0  0
 20 40  1  0  0  0  0
 21 41  1  0  0  0  0
M  END
$$$$
