Title Card Required
 OpenBabel03192317453D

 59 63  0  0  1  0  0  0  0  0999 V2000
   -1.1961    2.2714    0.0568 C   0  0  0  0  0  0  0  0  0  0  0  0
   -1.1371    0.8730    0.0548 C   0  0  0  0  0  0  0  0  0  0  0  0
   -0.0000    0.1872    0.0001 N   0  0  0  0  0  0  0  0  0  0  0  0
    1.1371    0.8730   -0.0546 C   0  0  0  0  0  0  0  0  0  0  0  0
    1.1961    2.2714   -0.0566 C   0  0  0  0  0  0  0  0  0  0  0  0
    0.0000    2.9788    0.0001 C   0  0  0  0  0  0  0  0  0  0  0  0
   -2.4077    0.1060    0.1194 C   0  0  0  0  0  0  0  0  0  0  0  0
    2.4077    0.1060   -0.1192 C   0  0  0  0  0  0  0  0  0  0  0  0
   -2.3080   -1.2309    0.2191 O   0  0  0  0  0  0  0  0  0  0  0  0
   -3.6430   -1.7337    0.1517 C   0  0  0  0  0  0  0  0  0  0  0  0
   -4.5258   -0.4644    0.2346 C   0  0  1  0  0  0  0  0  0  0  0  0
   -3.5641    0.6307    0.1068 N   0  0  0  0  0  0  0  0  0  0  0  0
    3.5641    0.6307   -0.1067 N   0  0  0  0  0  0  0  0  0  0  0  0
    4.5258   -0.4645   -0.2345 C   0  0  2  0  0  0  0  0  0  0  0  0
    3.6429   -1.7337   -0.1513 C   0  0  0  0  0  0  0  0  0  0  0  0
    2.3079   -1.2309   -0.2188 O   0  0  0  0  0  0  0  0  0  0  0  0
   -5.6206   -0.4096   -0.8366 C   0  0  0  0  0  0  0  0  0  0  0  0
    5.6207   -0.4096    0.8365 C   0  0  0  0  0  0  0  0  0  0  0  0
   -6.3529    0.9381   -0.8428 C   0  0  0  0  0  0  0  0  0  0  0  0
   -7.2488    1.1215    0.3833 C   0  0  0  0  0  0  0  0  0  0  0  0
   -8.2440   -0.0318    0.5185 C   0  0  0  0  0  0  0  0  0  0  0  0
   -7.5283   -1.3828    0.5519 C   0  0  0  0  0  0  0  0  0  0  0  0
   -6.6256   -1.5601   -0.6717 C   0  0  0  0  0  0  0  0  0  0  0  0
    6.3530    0.9382    0.8426 C   0  0  0  0  0  0  0  0  0  0  0  0
    7.2487    1.1215   -0.3837 C   0  0  0  0  0  0  0  0  0  0  0  0
    8.2439   -0.0318   -0.5189 C   0  0  0  0  0  0  0  0  0  0  0  0
    7.5283   -1.3828   -0.5521 C   0  0  0  0  0  0  0  0  0  0  0  0
    6.6257   -1.5600    0.6716 C   0  0  0  0  0  0  0  0  0  0  0  0
   -2.1695    2.7588    0.1046 H   0  0  0  0  0  0  0  0  0  0  0  0
    2.1695    2.7588   -0.1044 H   0  0  0  0  0  0  0  0  0  0  0  0
    0.0000    4.0696    0.0001 H   0  0  0  0  0  0  0  0  0  0  0  0
   -3.7957   -2.4469    0.9714 H   0  0  0  0  0  0  0  0  0  0  0  0
   -3.7687   -2.2598   -0.8094 H   0  0  0  0  0  0  0  0  0  0  0  0
   -4.9921   -0.3800    1.2313 H   0  0  0  0  0  0  0  0  0  0  0  0
    4.9919   -0.3801   -1.2312 H   0  0  0  0  0  0  0  0  0  0  0  0
    3.7956   -2.4471   -0.9709 H   0  0  0  0  0  0  0  0  0  0  0  0
    3.7686   -2.2596    0.8099 H   0  0  0  0  0  0  0  0  0  0  0  0
   -5.1049   -0.5277   -1.8055 H   0  0  0  0  0  0  0  0  0  0  0  0
    5.1051   -0.5276    1.8055 H   0  0  0  0  0  0  0  0  0  0  0  0
   -5.6158    1.7498   -0.9107 H   0  0  0  0  0  0  0  0  0  0  0  0
   -6.9794    0.9853   -1.7501 H   0  0  0  0  0  0  0  0  0  0  0  0
   -6.6277    1.1818    1.2934 H   0  0  0  0  0  0  0  0  0  0  0  0
   -7.7836    2.0808    0.3145 H   0  0  0  0  0  0  0  0  0  0  0  0
   -8.8664    0.0951    1.4171 H   0  0  0  0  0  0  0  0  0  0  0  0
   -8.9301   -0.0142   -0.3466 H   0  0  0  0  0  0  0  0  0  0  0  0
   -6.9312   -1.4560    1.4774 H   0  0  0  0  0  0  0  0  0  0  0  0
   -8.2602   -2.2035    0.5961 H   0  0  0  0  0  0  0  0  0  0  0  0
   -7.2590   -1.5940   -1.5741 H   0  0  0  0  0  0  0  0  0  0  0  0
   -6.1033   -2.5300   -0.6272 H   0  0  0  0  0  0  0  0  0  0  0  0
    5.6159    1.7498    0.9105 H   0  0  0  0  0  0  0  0  0  0  0  0
    6.9796    0.9854    1.7498 H   0  0  0  0  0  0  0  0  0  0  0  0
    6.6275    1.1817   -1.2936 H   0  0  0  0  0  0  0  0  0  0  0  0
    7.7835    2.0808   -0.3150 H   0  0  0  0  0  0  0  0  0  0  0  0
    8.8662    0.0951   -1.4176 H   0  0  0  0  0  0  0  0  0  0  0  0
    8.9302   -0.0141    0.3461 H   0  0  0  0  0  0  0  0  0  0  0  0
    6.9311   -1.4561   -1.4776 H   0  0  0  0  0  0  0  0  0  0  0  0
    8.2602   -2.2035   -0.5963 H   0  0  0  0  0  0  0  0  0  0  0  0
    7.2592   -1.5939    1.5739 H   0  0  0  0  0  0  0  0  0  0  0  0
    6.1034   -2.5299    0.6272 H   0  0  0  0  0  0  0  0  0  0  0  0
  1  2  2  0  0  0  0
  1  6  1  0  0  0  0
  1 29  1  0  0  0  0
  2  3  1  0  0  0  0
  2  7  1  0  0  0  0
  3  4  2  0  0  0  0
  4  5  1  0  0  0  0
  4  8  1  0  0  0  0
  5  6  2  0  0  0  0
  5 30  1  0  0  0  0
  6 31  1  0  0  0  0
  7  9  1  0  0  0  0
  7 12  2  0  0  0  0
  8 13  2  0  0  0  0
  8 16  1  0  0  0  0
  9 10  1  0  0  0  0
 10 11  1  0  0  0  0
 10 32  1  0  0  0  0
 10 33  1  0  0  0  0
 11 12  1  0  0  0  0
 11 17  1  0  0  0  0
 11 34  1  1  0  0  0
 13 14  1  0  0  0  0
 14 15  1  0  0  0  0
 14 18  1  0  0  0  0
 14 35  1  6  0  0  0
 15 16  1  0  0  0  0
 15 36  1  0  0  0  0
 15 37  1  0  0  0  0
 17 19  1  0  0  0  0
 17 23  1  0  0  0  0
 17 38  1  0  0  0  0
 18 24  1  0  0  0  0
 18 28  1  0  0  0  0
 18 39  1  0  0  0  0
 19 20  1  0  0  0  0
 19 40  1  0  0  0  0
 19 41  1  0  0  0  0
 20 21  1  0  0  0  0
 20 42  1  0  0  0  0
 20 43  1  0  0  0  0
 21 22  1  0  0  0  0
 21 44  1  0  0  0  0
 21 45  1  0  0  0  0
 22 23  1  0  0  0  0
 22 46  1  0  0  0  0
 22 47  1  0  0  0  0
 23 48  1  0  0  0  0
 23 49  1  0  0  0  0
 24 25  1  0  0  0  0
 24 50  1  0  0  0  0
 24 51  1  0  0  0  0
 25 26  1  0  0  0  0
 25 52  1  0  0  0  0
 25 53  1  0  0  0  0
 26 27  1  0  0  0  0
 26 54  1  0  0  0  0
 26 55  1  0  0  0  0
 27 28  1  0  0  0  0
 27 56  1  0  0  0  0
 27 57  1  0  0  0  0
 28 58  1  0  0  0  0
 28 59  1  0  0  0  0
M  END
$$$$
