Title Card Required
 OpenBabel03192317543D

 67 72  0  0  1  0  0  0  0  0999 V2000
   -0.9575    1.6109    1.2743 O   0  0  0  0  0  0  0  0  0  0  0  0
   -1.1856    2.5140    0.2904 C   0  0  0  0  0  0  0  0  0  0  0  0
   -2.3256    2.5241   -0.2574 N   0  0  0  0  0  0  0  0  0  0  0  0
   -3.0780    1.4040    0.3050 C   0  0  2  0  0  0  0  0  0  0  0  0
   -2.2149    0.9856    1.5573 C   0  0  1  0  0  0  0  0  0  0  0  0
   -0.0122    3.4094   -0.0255 C   0  0  0  0  0  0  0  0  0  0  0  0
   -2.0390   -0.4842    1.8086 C   0  0  0  0  0  0  0  0  0  0  0  0
   -3.2657    0.2985   -0.7178 C   0  0  0  0  0  0  0  0  0  0  0  0
    2.2576    0.9854   -1.5014 C   0  0  2  0  0  0  0  0  0  0  0  0
    3.0613    1.3929   -0.2135 C   0  0  1  0  0  0  0  0  0  0  0  0
    2.2814    2.5174    0.3106 N   0  0  0  0  0  0  0  0  0  0  0  0
    1.1661    2.5012   -0.2843 C   0  0  0  0  0  0  0  0  0  0  0  0
    0.9761    1.5804   -1.2649 O   0  0  0  0  0  0  0  0  0  0  0  0
    3.1941    0.2959    0.8229 C   0  0  0  0  0  0  0  0  0  0  0  0
    2.1324   -0.4800   -1.8211 C   0  0  0  0  0  0  0  0  0  0  0  0
    0.8856   -1.1006   -1.8838 C   0  0  0  0  0  0  0  0  0  0  0  0
    0.7851   -2.4637   -2.1662 C   0  0  0  0  0  0  0  0  0  0  0  0
    1.9341   -3.2162   -2.3968 C   0  0  0  0  0  0  0  0  0  0  0  0
    3.1841   -2.5954   -2.3569 C   0  0  0  0  0  0  0  0  0  0  0  0
    3.2823   -1.2357   -2.0754 C   0  0  0  0  0  0  0  0  0  0  0  0
    4.3963   -0.3999    0.9658 C   0  0  0  0  0  0  0  0  0  0  0  0
    4.5011   -1.4610    1.8642 C   0  0  0  0  0  0  0  0  0  0  0  0
    3.3989   -1.8353    2.6311 C   0  0  0  0  0  0  0  0  0  0  0  0
    2.1982   -1.1368    2.5025 C   0  0  0  0  0  0  0  0  0  0  0  0
    2.0977   -0.0724    1.6085 C   0  0  0  0  0  0  0  0  0  0  0  0
   -2.4655    0.2240   -1.8585 C   0  0  0  0  0  0  0  0  0  0  0  0
   -2.5901   -0.8511   -2.7408 C   0  0  0  0  0  0  0  0  0  0  0  0
   -3.5170   -1.8600   -2.4911 C   0  0  0  0  0  0  0  0  0  0  0  0
   -4.3324   -1.7830   -1.3602 C   0  0  0  0  0  0  0  0  0  0  0  0
   -4.2102   -0.7081   -0.4848 C   0  0  0  0  0  0  0  0  0  0  0  0
   -2.8447   -1.1431    2.7382 C   0  0  0  0  0  0  0  0  0  0  0  0
   -2.7395   -2.5241    2.9063 C   0  0  0  0  0  0  0  0  0  0  0  0
   -1.8184   -3.2509    2.1534 C   0  0  0  0  0  0  0  0  0  0  0  0
   -0.9998   -2.5930    1.2338 C   0  0  0  0  0  0  0  0  0  0  0  0
   -1.1140   -1.2171    1.0603 C   0  0  0  0  0  0  0  0  0  0  0  0
   -0.3115    4.2321   -1.2820 C   0  0  0  0  0  0  0  0  0  0  0  0
    0.2822    4.3018    1.1843 C   0  0  0  0  0  0  0  0  0  0  0  0
   -4.0687    1.7416    0.6416 H   0  0  0  0  0  0  0  0  0  0  0  0
   -2.6293    1.4709    2.4558 H   0  0  0  0  0  0  0  0  0  0  0  0
    2.7004    1.5097   -2.3663 H   0  0  0  0  0  0  0  0  0  0  0  0
    4.0670    1.7347   -0.4951 H   0  0  0  0  0  0  0  0  0  0  0  0
   -0.0135   -0.5099   -1.7211 H   0  0  0  0  0  0  0  0  0  0  0  0
   -0.2029   -2.9280   -2.2065 H   0  0  0  0  0  0  0  0  0  0  0  0
    1.8599   -4.2825   -2.6152 H   0  0  0  0  0  0  0  0  0  0  0  0
    4.0889   -3.1752   -2.5454 H   0  0  0  0  0  0  0  0  0  0  0  0
    4.2653   -0.7593   -2.0428 H   0  0  0  0  0  0  0  0  0  0  0  0
    5.2632   -0.1085    0.3669 H   0  0  0  0  0  0  0  0  0  0  0  0
    5.4477   -1.9939    1.9675 H   0  0  0  0  0  0  0  0  0  0  0  0
    3.4777   -2.6656    3.3345 H   0  0  0  0  0  0  0  0  0  0  0  0
    1.3295   -1.4177    3.1016 H   0  0  0  0  0  0  0  0  0  0  0  0
    1.1603    0.4839    1.5337 H   0  0  0  0  0  0  0  0  0  0  0  0
   -1.7364    1.0128   -2.0529 H   0  0  0  0  0  0  0  0  0  0  0  0
   -1.9520   -0.8984   -3.6257 H   0  0  0  0  0  0  0  0  0  0  0  0
   -3.6119   -2.7013   -3.1796 H   0  0  0  0  0  0  0  0  0  0  0  0
   -5.0663   -2.5653   -1.1607 H   0  0  0  0  0  0  0  0  0  0  0  0
   -4.8445   -0.6588    0.4039 H   0  0  0  0  0  0  0  0  0  0  0  0
   -3.5604   -0.5729    3.3362 H   0  0  0  0  0  0  0  0  0  0  0  0
   -3.3729   -3.0320    3.6352 H   0  0  0  0  0  0  0  0  0  0  0  0
   -1.7320   -4.3300    2.2902 H   0  0  0  0  0  0  0  0  0  0  0  0
   -0.2609   -3.1464    0.6509 H   0  0  0  0  0  0  0  0  0  0  0  0
   -0.4728   -0.6995    0.3462 H   0  0  0  0  0  0  0  0  0  0  0  0
   -1.2046    4.8479   -1.1163 H   0  0  0  0  0  0  0  0  0  0  0  0
    0.5440    4.8838   -1.5078 H   0  0  0  0  0  0  0  0  0  0  0  0
   -0.5054    3.5761   -2.1397 H   0  0  0  0  0  0  0  0  0  0  0  0
   -0.5819    4.9513    1.3816 H   0  0  0  0  0  0  0  0  0  0  0  0
    0.4969    3.6924    2.0708 H   0  0  0  0  0  0  0  0  0  0  0  0
    1.1640    4.9219    0.9782 H   0  0  0  0  0  0  0  0  0  0  0  0
  1  2  1  0  0  0  0
  1  5  1  0  0  0  0
  2  3  2  0  0  0  0
  2  6  1  0  0  0  0
  3  4  1  0  0  0  0
  4  5  1  0  0  0  0
  4  8  1  0  0  0  0
  4 38  1  1  0  0  0
  5  7  1  0  0  0  0
  5 39  1  1  0  0  0
  6 12  1  0  0  0  0
  6 36  1  0  0  0  0
  6 37  1  0  0  0  0
  7 31  2  0  0  0  0
  7 35  1  0  0  0  0
  8 26  2  0  0  0  0
  8 30  1  0  0  0  0
  9 10  1  0  0  0  0
  9 13  1  0  0  0  0
  9 15  1  0  0  0  0
  9 40  1  6  0  0  0
 10 11  1  0  0  0  0
 10 14  1  0  0  0  0
 10 41  1  6  0  0  0
 11 12  2  0  0  0  0
 12 13  1  0  0  0  0
 14 21  2  0  0  0  0
 14 25  1  0  0  0  0
 15 16  2  0  0  0  0
 15 20  1  0  0  0  0
 16 17  1  0  0  0  0
 16 42  1  0  0  0  0
 17 18  2  0  0  0  0
 17 43  1  0  0  0  0
 18 19  1  0  0  0  0
 18 44  1  0  0  0  0
 19 20  2  0  0  0  0
 19 45  1  0  0  0  0
 20 46  1  0  0  0  0
 21 22  1  0  0  0  0
 21 47  1  0  0  0  0
 22 23  2  0  0  0  0
 22 48  1  0  0  0  0
 23 24  1  0  0  0  0
 23 49  1  0  0  0  0
 24 25  2  0  0  0  0
 24 50  1  0  0  0  0
 25 51  1  0  0  0  0
 26 27  1  0  0  0  0
 26 52  1  0  0  0  0
 27 28  2  0  0  0  0
 27 53  1  0  0  0  0
 28 29  1  0  0  0  0
 28 54  1  0  0  0  0
 29 30  2  0  0  0  0
 29 55  1  0  0  0  0
 30 56  1  0  0  0  0
 31 32  1  0  0  0  0
 31 57  1  0  0  0  0
 32 33  2  0  0  0  0
 32 58  1  0  0  0  0
 33 34  1  0  0  0  0
 33 59  1  0  0  0  0
 34 35  2  0  0  0  0
 34 60  1  0  0  0  0
 35 61  1  0  0  0  0
 36 62  1  0  0  0  0
 36 63  1  0  0  0  0
 36 64  1  0  0  0  0
 37 65  1  0  0  0  0
 37 66  1  0  0  0  0
 37 67  1  0  0  0  0
M  END
$$$$
