Title Card Required
 OpenBabel03192317433D

 69 73  0  0  1  0  0  0  0  0999 V2000
   -1.2147   -5.2408   -1.0810 C   0  0  0  0  0  0  0  0  0  0  0  0
   -1.0205   -4.1520   -0.0253 C   0  0  0  0  0  0  0  0  0  0  0  0
    0.4467   -3.9404    0.3075 C   0  0  0  0  0  0  0  0  0  0  0  0
   -1.6934   -2.6221   -0.8587 S   0  0  1  0  0  0  0  0  0  0  0  0
   -3.1597   -2.9097   -0.9789 O   0  0  0  0  0  0  0  0  0  0  0  0
   -1.3672   -1.5330    0.3973 N   0  0  0  0  0  0  0  0  0  0  0  0
   -1.8717   -4.4445    1.2032 C   0  0  0  0  0  0  0  0  0  0  0  0
   -1.3575   -0.1030    0.0987 C   0  0  1  0  0  0  0  0  0  0  0  0
   -2.7309    0.5479   -0.0384 C   0  0  0  0  0  0  0  0  0  0  0  0
   -3.8856   -0.1396    0.2565 C   0  0  0  0  0  0  0  0  0  0  0  0
   -5.1549    0.4888    0.1885 C   0  0  0  0  0  0  0  0  0  0  0  0
   -5.2586    1.8039   -0.1775 C   0  0  0  0  0  0  0  0  0  0  0  0
   -4.0951    2.5460   -0.5231 C   0  0  0  0  0  0  0  0  0  0  0  0
   -4.1881    3.9012   -0.9400 C   0  0  0  0  0  0  0  0  0  0  0  0
   -3.0686    4.6071   -1.3052 C   0  0  0  0  0  0  0  0  0  0  0  0
   -1.8016    3.9791   -1.2759 C   0  0  0  0  0  0  0  0  0  0  0  0
   -1.6784    2.6720   -0.8668 C   0  0  0  0  0  0  0  0  0  0  0  0
   -2.8169    1.9160   -0.4675 C   0  0  0  0  0  0  0  0  0  0  0  0
   -0.5157    0.5631    1.1878 C   0  0  0  0  0  0  0  0  0  0  0  0
    0.8568    0.8399    1.0256 C   0  0  0  0  0  0  0  0  0  0  0  0
    1.5704    1.3838    2.1043 C   0  0  0  0  0  0  0  0  0  0  0  0
    0.9521    1.6364    3.3261 C   0  0  0  0  0  0  0  0  0  0  0  0
   -0.4059    1.3660    3.4806 C   0  0  0  0  0  0  0  0  0  0  0  0
   -1.1293    0.8407    2.4143 C   0  0  0  0  0  0  0  0  0  0  0  0
    1.6517    0.5843   -0.6301 P   0  0  0  0  0  0  0  0  0  0  0  0
    3.0569    1.7727   -0.5190 C   0  0  0  0  0  0  0  0  0  0  0  0
    2.7347    3.1385   -0.5415 C   0  0  0  0  0  0  0  0  0  0  0  0
    3.7336    4.1055   -0.4979 C   0  0  0  0  0  0  0  0  0  0  0  0
    5.0756    3.7224   -0.4517 C   0  0  0  0  0  0  0  0  0  0  0  0
    5.4055    2.3697   -0.4445 C   0  0  0  0  0  0  0  0  0  0  0  0
    4.4030    1.3972   -0.4747 C   0  0  0  0  0  0  0  0  0  0  0  0
    2.5204   -1.0284   -0.4401 C   0  0  0  0  0  0  0  0  0  0  0  0
    2.8456   -1.7109   -1.6198 C   0  0  0  0  0  0  0  0  0  0  0  0
    3.5668   -2.9039   -1.5744 C   0  0  0  0  0  0  0  0  0  0  0  0
    3.9560   -3.4348   -0.3452 C   0  0  0  0  0  0  0  0  0  0  0  0
    3.6237   -2.7692    0.8352 C   0  0  0  0  0  0  0  0  0  0  0  0
    2.9121   -1.5707    0.7893 C   0  0  0  0  0  0  0  0  0  0  0  0
   -0.6234   -5.0261   -1.9844 H   0  0  0  0  0  0  0  0  0  0  0  0
   -2.2739   -5.3169   -1.3624 H   0  0  0  0  0  0  0  0  0  0  0  0
   -0.8815   -6.2075   -0.6750 H   0  0  0  0  0  0  0  0  0  0  0  0
    1.0218   -3.6229   -0.5768 H   0  0  0  0  0  0  0  0  0  0  0  0
    0.5721   -3.1753    1.0838 H   0  0  0  0  0  0  0  0  0  0  0  0
    0.8798   -4.8862    0.6705 H   0  0  0  0  0  0  0  0  0  0  0  0
   -1.8265   -1.7646    1.2793 H   0  0  0  0  0  0  0  0  0  0  0  0
   -2.9388   -4.4139    0.9397 H   0  0  0  0  0  0  0  0  0  0  0  0
   -1.6303   -5.4488    1.5835 H   0  0  0  0  0  0  0  0  0  0  0  0
   -1.6724   -3.7324    2.0186 H   0  0  0  0  0  0  0  0  0  0  0  0
   -0.8320    0.0031   -0.8647 H   0  0  0  0  0  0  0  0  0  0  0  0
   -3.8431   -1.1995    0.5049 H   0  0  0  0  0  0  0  0  0  0  0  0
   -6.0472   -0.0910    0.4282 H   0  0  0  0  0  0  0  0  0  0  0  0
   -6.2311    2.2978   -0.2288 H   0  0  0  0  0  0  0  0  0  0  0  0
   -5.1744    4.3690   -0.9723 H   0  0  0  0  0  0  0  0  0  0  0  0
   -3.1534    5.6458   -1.6278 H   0  0  0  0  0  0  0  0  0  0  0  0
   -0.9153    4.5349   -1.5869 H   0  0  0  0  0  0  0  0  0  0  0  0
   -0.6919    2.2076   -0.8666 H   0  0  0  0  0  0  0  0  0  0  0  0
    2.6290    1.6229    1.9808 H   0  0  0  0  0  0  0  0  0  0  0  0
    1.5295    2.0569    4.1509 H   0  0  0  0  0  0  0  0  0  0  0  0
   -0.9062    1.5746    4.4275 H   0  0  0  0  0  0  0  0  0  0  0  0
   -2.2005    0.6539    2.5235 H   0  0  0  0  0  0  0  0  0  0  0  0
    1.6855    3.4465   -0.5806 H   0  0  0  0  0  0  0  0  0  0  0  0
    3.4656    5.1633   -0.5063 H   0  0  0  0  0  0  0  0  0  0  0  0
    5.8612    4.4790   -0.4237 H   0  0  0  0  0  0  0  0  0  0  0  0
    6.4522    2.0626   -0.4107 H   0  0  0  0  0  0  0  0  0  0  0  0
    4.6768    0.3404   -0.4603 H   0  0  0  0  0  0  0  0  0  0  0  0
    2.5300   -1.3005   -2.5824 H   0  0  0  0  0  0  0  0  0  0  0  0
    3.8180   -3.4234   -2.5005 H   0  0  0  0  0  0  0  0  0  0  0  0
    4.5158   -4.3707   -0.3064 H   0  0  0  0  0  0  0  0  0  0  0  0
    3.9214   -3.1855    1.7992 H   0  0  0  0  0  0  0  0  0  0  0  0
    2.6548   -1.0547    1.7170 H   0  0  0  0  0  0  0  0  0  0  0  0
  1  2  1  0  0  0  0
  1 38  1  0  0  0  0
  1 39  1  0  0  0  0
  1 40  1  0  0  0  0
  2  3  1  0  0  0  0
  2  4  1  0  0  0  0
  2  7  1  0  0  0  0
  3 41  1  0  0  0  0
  3 42  1  0  0  0  0
  3 43  1  0  0  0  0
  4  5  2  1  0  0  0
  4  6  1  0  0  0  0
  6  8  1  0  0  0  0
  6 44  1  0  0  0  0
  7 45  1  0  0  0  0
  7 46  1  0  0  0  0
  7 47  1  0  0  0  0
  8  9  1  0  0  0  0
  8 19  1  0  0  0  0
  8 48  1  6  0  0  0
  9 10  2  0  0  0  0
  9 18  1  0  0  0  0
 10 11  1  0  0  0  0
 10 49  1  0  0  0  0
 11 12  2  0  0  0  0
 11 50  1  0  0  0  0
 12 13  1  0  0  0  0
 12 51  1  0  0  0  0
 13 14  2  0  0  0  0
 13 18  1  0  0  0  0
 14 15  1  0  0  0  0
 14 52  1  0  0  0  0
 15 16  2  0  0  0  0
 15 53  1  0  0  0  0
 16 17  1  0  0  0  0
 16 54  1  0  0  0  0
 17 18  2  0  0  0  0
 17 55  1  0  0  0  0
 19 20  2  0  0  0  0
 19 24  1  0  0  0  0
 20 21  1  0  0  0  0
 20 25  1  0  0  0  0
 21 22  2  0  0  0  0
 21 56  1  0  0  0  0
 22 23  1  0  0  0  0
 22 57  1  0  0  0  0
 23 24  2  0  0  0  0
 23 58  1  0  0  0  0
 24 59  1  0  0  0  0
 25 26  1  0  0  0  0
 25 32  1  0  0  0  0
 26 27  2  0  0  0  0
 26 31  1  0  0  0  0
 27 28  1  0  0  0  0
 27 60  1  0  0  0  0
 28 29  2  0  0  0  0
 28 61  1  0  0  0  0
 29 30  1  0  0  0  0
 29 62  1  0  0  0  0
 30 31  2  0  0  0  0
 30 63  1  0  0  0  0
 31 64  1  0  0  0  0
 32 33  2  0  0  0  0
 32 37  1  0  0  0  0
 33 34  1  0  0  0  0
 33 65  1  0  0  0  0
 34 35  2  0  0  0  0
 34 66  1  0  0  0  0
 35 36  1  0  0  0  0
 35 67  1  0  0  0  0
 36 37  2  0  0  0  0
 36 68  1  0  0  0  0
 37 69  1  0  0  0  0
M  END
$$$$
