Title Card Required
 OpenBabel03192317523D

 75 78  0  0  1  0  0  0  0  0999 V2000
    5.8235   -0.6768    0.0503 C   0  0  0  0  0  0  0  0  0  0  0  0
    4.4691   -0.2742   -0.5282 C   0  0  0  0  0  0  0  0  0  0  0  0
    4.2780   -0.7742   -1.9534 C   0  0  0  0  0  0  0  0  0  0  0  0
    3.2349   -1.1644    0.5393 S   0  0  1  0  0  0  0  0  0  0  0  0
    3.3738   -0.5227    1.8912 O   0  0  0  0  0  0  0  0  0  0  0  0
    1.7976   -0.5561   -0.1445 N   0  0  0  0  0  0  0  0  0  0  0  0
    4.2269    1.2190   -0.3950 C   0  0  0  0  0  0  0  0  0  0  0  0
    0.7985   -1.5300   -0.5681 C   0  0  1  0  0  0  0  0  0  0  0  0
    0.0178   -2.2254    0.5472 C   0  0  0  0  0  0  0  0  0  0  0  0
    0.3369   -2.0632    1.8981 C   0  0  0  0  0  0  0  0  0  0  0  0
   -0.3798   -2.7574    2.8752 C   0  0  0  0  0  0  0  0  0  0  0  0
   -1.4126   -3.6217    2.5181 C   0  0  0  0  0  0  0  0  0  0  0  0
   -1.7265   -3.7971    1.1698 C   0  0  0  0  0  0  0  0  0  0  0  0
   -1.0161   -3.1022    0.1943 C   0  0  0  0  0  0  0  0  0  0  0  0
   -0.0990   -0.9193   -1.6432 C   0  0  0  0  0  0  0  0  0  0  0  0
   -0.9289    0.2027   -1.4211 C   0  0  0  0  0  0  0  0  0  0  0  0
   -1.6485    0.7152   -2.5083 C   0  0  0  0  0  0  0  0  0  0  0  0
   -1.6041    0.1284   -3.7711 C   0  0  0  0  0  0  0  0  0  0  0  0
   -0.8075   -0.9932   -3.9753 C   0  0  0  0  0  0  0  0  0  0  0  0
   -0.0572   -1.4987   -2.9166 C   0  0  0  0  0  0  0  0  0  0  0  0
   -0.9974    1.0167    0.2588 P   0  0  0  0  0  0  0  0  0  0  0  0
   -0.8309    2.8176   -0.2764 C   0  0  0  0  0  0  0  0  0  0  0  0
    0.6566    3.1016   -0.5621 C   0  0  0  0  0  0  0  0  0  0  0  0
    1.5085    3.1796    0.7098 C   0  0  0  0  0  0  0  0  0  0  0  0
    0.9238    4.1549    1.7318 C   0  0  0  0  0  0  0  0  0  0  0  0
   -0.5358    3.8262    2.0446 C   0  0  0  0  0  0  0  0  0  0  0  0
   -1.3614    3.8206    0.7582 C   0  0  0  0  0  0  0  0  0  0  0  0
   -2.7720    0.9295    0.8644 C   0  0  0  0  0  0  0  0  0  0  0  0
   -3.0618   -0.4120    1.5972 C   0  0  0  0  0  0  0  0  0  0  0  0
   -4.2148   -1.2110    0.9828 C   0  0  0  0  0  0  0  0  0  0  0  0
   -4.1415   -1.1464   -0.5380 C   0  0  0  0  0  0  0  0  0  0  0  0
   -4.4728    0.2707   -1.0140 C   0  0  0  0  0  0  0  0  0  0  0  0
   -3.9261    1.3591   -0.0618 C   0  0  0  0  0  0  0  0  0  0  0  0
    5.9790   -1.7651   -0.0134 H   0  0  0  0  0  0  0  0  0  0  0  0
    5.8913   -0.3741    1.1045 H   0  0  0  0  0  0  0  0  0  0  0  0
    6.6285   -0.1831   -0.5144 H   0  0  0  0  0  0  0  0  0  0  0  0
    4.4087   -1.8662   -2.0169 H   0  0  0  0  0  0  0  0  0  0  0  0
    3.2771   -0.5107   -2.3262 H   0  0  0  0  0  0  0  0  0  0  0  0
    5.0271   -0.3069   -2.6108 H   0  0  0  0  0  0  0  0  0  0  0  0
    1.4220    0.1813    0.4608 H   0  0  0  0  0  0  0  0  0  0  0  0
    4.2175    1.5050    0.6670 H   0  0  0  0  0  0  0  0  0  0  0  0
    5.0297    1.7728   -0.9062 H   0  0  0  0  0  0  0  0  0  0  0  0
    3.2666    1.4973   -0.8518 H   0  0  0  0  0  0  0  0  0  0  0  0
    1.3662   -2.3262   -1.0774 H   0  0  0  0  0  0  0  0  0  0  0  0
    1.1460   -1.3970    2.2050 H   0  0  0  0  0  0  0  0  0  0  0  0
   -0.1238   -2.6158    3.9263 H   0  0  0  0  0  0  0  0  0  0  0  0
   -1.9697   -4.1594    3.2870 H   0  0  0  0  0  0  0  0  0  0  0  0
   -2.5310   -4.4736    0.8757 H   0  0  0  0  0  0  0  0  0  0  0  0
   -1.2705   -3.2366   -0.8601 H   0  0  0  0  0  0  0  0  0  0  0  0
   -2.2742    1.5976   -2.3682 H   0  0  0  0  0  0  0  0  0  0  0  0
   -2.1886    0.5514   -4.5897 H   0  0  0  0  0  0  0  0  0  0  0  0
   -0.7555   -1.4667   -4.9569 H   0  0  0  0  0  0  0  0  0  0  0  0
    0.5880   -2.3648   -3.0825 H   0  0  0  0  0  0  0  0  0  0  0  0
   -1.3965    2.9623   -1.2088 H   0  0  0  0  0  0  0  0  0  0  0  0
    1.0601    2.3393   -1.2510 H   0  0  0  0  0  0  0  0  0  0  0  0
    0.7236    4.0680   -1.0921 H   0  0  0  0  0  0  0  0  0  0  0  0
    1.5922    2.1832    1.1777 H   0  0  0  0  0  0  0  0  0  0  0  0
    2.5337    3.4800    0.4463 H   0  0  0  0  0  0  0  0  0  0  0  0
    1.5294    4.1470    2.6502 H   0  0  0  0  0  0  0  0  0  0  0  0
    0.9759    5.1809    1.3260 H   0  0  0  0  0  0  0  0  0  0  0  0
   -0.5931    2.8375    2.5333 H   0  0  0  0  0  0  0  0  0  0  0  0
   -0.9499    4.5564    2.7563 H   0  0  0  0  0  0  0  0  0  0  0  0
   -1.3000    4.8255    0.3031 H   0  0  0  0  0  0  0  0  0  0  0  0
   -2.4280    3.6494    0.9668 H   0  0  0  0  0  0  0  0  0  0  0  0
   -2.7044    1.7012    1.6474 H   0  0  0  0  0  0  0  0  0  0  0  0
   -2.1624   -1.0434    1.5864 H   0  0  0  0  0  0  0  0  0  0  0  0
   -3.2724   -0.2120    2.6585 H   0  0  0  0  0  0  0  0  0  0  0  0
   -4.1635   -2.2488    1.3438 H   0  0  0  0  0  0  0  0  0  0  0  0
   -5.1885   -0.8097    1.3136 H   0  0  0  0  0  0  0  0  0  0  0  0
   -3.1197   -1.4199   -0.8557 H   0  0  0  0  0  0  0  0  0  0  0  0
   -4.8244   -1.8703   -1.0071 H   0  0  0  0  0  0  0  0  0  0  0  0
   -4.1078    0.4109   -2.0393 H   0  0  0  0  0  0  0  0  0  0  0  0
   -5.5674    0.3833   -1.0649 H   0  0  0  0  0  0  0  0  0  0  0  0
   -4.7483    1.6755    0.6008 H   0  0  0  0  0  0  0  0  0  0  0  0
   -3.6468    2.2646   -0.6259 H   0  0  0  0  0  0  0  0  0  0  0  0
  1  2  1  0  0  0  0
  1 34  1  0  0  0  0
  1 35  1  0  0  0  0
  1 36  1  0  0  0  0
  2  3  1  0  0  0  0
  2  4  1  0  0  0  0
  2  7  1  0  0  0  0
  3 37  1  0  0  0  0
  3 38  1  0  0  0  0
  3 39  1  0  0  0  0
  4  5  2  1  0  0  0
  4  6  1  0  0  0  0
  6  8  1  0  0  0  0
  6 40  1  0  0  0  0
  7 41  1  0  0  0  0
  7 42  1  0  0  0  0
  7 43  1  0  0  0  0
  8  9  1  0  0  0  0
  8 15  1  0  0  0  0
  8 44  1  6  0  0  0
  9 10  2  0  0  0  0
  9 14  1  0  0  0  0
 10 11  1  0  0  0  0
 10 45  1  0  0  0  0
 11 12  2  0  0  0  0
 11 46  1  0  0  0  0
 12 13  1  0  0  0  0
 12 47  1  0  0  0  0
 13 14  2  0  0  0  0
 13 48  1  0  0  0  0
 14 49  1  0  0  0  0
 15 16  2  0  0  0  0
 15 20  1  0  0  0  0
 16 17  1  0  0  0  0
 16 21  1  0  0  0  0
 17 18  2  0  0  0  0
 17 50  1  0  0  0  0
 18 19  1  0  0  0  0
 18 51  1  0  0  0  0
 19 20  2  0  0  0  0
 19 52  1  0  0  0  0
 20 53  1  0  0  0  0
 21 22  1  0  0  0  0
 21 28  1  0  0  0  0
 22 23  1  0  0  0  0
 22 27  1  0  0  0  0
 22 54  1  0  0  0  0
 23 24  1  0  0  0  0
 23 55  1  0  0  0  0
 23 56  1  0  0  0  0
 24 25  1  0  0  0  0
 24 57  1  0  0  0  0
 24 58  1  0  0  0  0
 25 26  1  0  0  0  0
 25 59  1  0  0  0  0
 25 60  1  0  0  0  0
 26 27  1  0  0  0  0
 26 61  1  0  0  0  0
 26 62  1  0  0  0  0
 27 63  1  0  0  0  0
 27 64  1  0  0  0  0
 28 29  1  0  0  0  0
 28 33  1  0  0  0  0
 28 65  1  0  0  0  0
 29 30  1  0  0  0  0
 29 66  1  0  0  0  0
 29 67  1  0  0  0  0
 30 31  1  0  0  0  0
 30 68  1  0  0  0  0
 30 69  1  0  0  0  0
 31 32  1  0  0  0  0
 31 70  1  0  0  0  0
 31 71  1  0  0  0  0
 32 33  1  0  0  0  0
 32 72  1  0  0  0  0
 32 73  1  0  0  0  0
 33 74  1  0  0  0  0
 33 75  1  0  0  0  0
M  END
$$$$
