Title Card Required
 OpenBabel03192317503D

 57 58  0  0  1  0  0  0  0  0999 V2000
   -1.2912   -0.4814   -1.3823 O   0  0  0  0  0  0  0  0  0  0  0  0
   -1.1718    0.0785   -0.1564 C   0  0  0  0  0  0  0  0  0  0  0  0
   -2.0818   -0.1465    0.6940 N   0  0  0  0  0  0  0  0  0  0  0  0
   -3.0555   -1.0391    0.0644 C   0  0  2  0  0  0  0  0  0  0  0  0
   -2.5154   -1.2163   -1.3793 C   0  0  0  0  0  0  0  0  0  0  0  0
    0.0473    0.9495    0.0143 C   0  0  0  0  0  0  0  0  0  0  0  0
   -4.5008   -0.5079    0.1829 C   0  0  0  0  0  0  0  0  0  0  0  0
    2.4469   -1.7904   -0.1423 C   0  0  0  0  0  0  0  0  0  0  0  0
    3.2812   -0.6354   -0.7575 C   0  0  1  0  0  0  0  0  0  0  0  0
    2.3604    0.5012   -0.7534 N   0  0  0  0  0  0  0  0  0  0  0  0
    1.2707    0.1024   -0.2481 C   0  0  0  0  0  0  0  0  0  0  0  0
    1.1825   -1.1897    0.1422 O   0  0  0  0  0  0  0  0  0  0  0  0
    4.6083   -0.3084   -0.0357 C   0  0  0  0  0  0  0  0  0  0  0  0
    0.0055    2.0802   -1.0379 C   0  0  0  0  0  0  0  0  0  0  0  0
    0.1153    1.5206    1.4476 C   0  0  0  0  0  0  0  0  0  0  0  0
    0.4722    0.5217    2.5427 C   0  0  0  0  0  0  0  0  0  0  0  0
   -1.2107    2.9893   -0.9276 C   0  0  0  0  0  0  0  0  0  0  0  0
    5.5097   -1.5460   -0.0687 C   0  0  0  0  0  0  0  0  0  0  0  0
    5.2888    0.8398   -0.7866 C   0  0  0  0  0  0  0  0  0  0  0  0
   -4.6091    0.9017   -0.4023 C   0  0  0  0  0  0  0  0  0  0  0  0
   -5.4435   -1.4650   -0.5520 C   0  0  0  0  0  0  0  0  0  0  0  0
   -4.8722   -0.4657    1.6681 C   0  0  0  0  0  0  0  0  0  0  0  0
    4.3467    0.1186    1.4104 C   0  0  0  0  0  0  0  0  0  0  0  0
   -3.0275   -2.0034    0.6008 H   0  0  0  0  0  0  0  0  0  0  0  0
   -2.3002   -2.2623   -1.6338 H   0  0  0  0  0  0  0  0  0  0  0  0
   -3.1779   -0.7943   -2.1495 H   0  0  0  0  0  0  0  0  0  0  0  0
    2.2896   -2.6253   -0.8379 H   0  0  0  0  0  0  0  0  0  0  0  0
    2.8633   -2.1855    0.7957 H   0  0  0  0  0  0  0  0  0  0  0  0
    3.5384   -0.8657   -1.8057 H   0  0  0  0  0  0  0  0  0  0  0  0
    0.9387    2.6512   -0.9338 H   0  0  0  0  0  0  0  0  0  0  0  0
    0.0376    1.6155   -2.0337 H   0  0  0  0  0  0  0  0  0  0  0  0
    0.8546    2.3379    1.4299 H   0  0  0  0  0  0  0  0  0  0  0  0
   -0.8656    1.9642    1.6691 H   0  0  0  0  0  0  0  0  0  0  0  0
    1.4883    0.1226    2.4128 H   0  0  0  0  0  0  0  0  0  0  0  0
    0.4295    1.0129    3.5249 H   0  0  0  0  0  0  0  0  0  0  0  0
   -0.2321   -0.3200    2.5462 H   0  0  0  0  0  0  0  0  0  0  0  0
   -1.2571    3.5019    0.0437 H   0  0  0  0  0  0  0  0  0  0  0  0
   -1.1792    3.7613   -1.7087 H   0  0  0  0  0  0  0  0  0  0  0  0
   -2.1463    2.4246   -1.0562 H   0  0  0  0  0  0  0  0  0  0  0  0
    5.6942   -1.8714   -1.1046 H   0  0  0  0  0  0  0  0  0  0  0  0
    6.4832   -1.3228    0.3931 H   0  0  0  0  0  0  0  0  0  0  0  0
    5.0690   -2.3911    0.4828 H   0  0  0  0  0  0  0  0  0  0  0  0
    4.6365    1.7229   -0.8069 H   0  0  0  0  0  0  0  0  0  0  0  0
    6.2391    1.1077   -0.3006 H   0  0  0  0  0  0  0  0  0  0  0  0
    5.5069    0.5526   -1.8271 H   0  0  0  0  0  0  0  0  0  0  0  0
   -4.3092    0.9359   -1.4620 H   0  0  0  0  0  0  0  0  0  0  0  0
   -5.6475    1.2606   -0.3413 H   0  0  0  0  0  0  0  0  0  0  0  0
   -3.9693    1.5976    0.1592 H   0  0  0  0  0  0  0  0  0  0  0  0
   -5.3542   -2.4884   -0.1544 H   0  0  0  0  0  0  0  0  0  0  0  0
   -6.4885   -1.1446   -0.4251 H   0  0  0  0  0  0  0  0  0  0  0  0
   -5.2372   -1.4974   -1.6329 H   0  0  0  0  0  0  0  0  0  0  0  0
   -4.8439   -1.4751    2.1073 H   0  0  0  0  0  0  0  0  0  0  0  0
   -4.1645    0.1670    2.2205 H   0  0  0  0  0  0  0  0  0  0  0  0
   -5.8885   -0.0648    1.8015 H   0  0  0  0  0  0  0  0  0  0  0  0
    3.6954    1.0047    1.4391 H   0  0  0  0  0  0  0  0  0  0  0  0
    3.8685   -0.6807    1.9982 H   0  0  0  0  0  0  0  0  0  0  0  0
    5.2943    0.3707    1.9097 H   0  0  0  0  0  0  0  0  0  0  0  0
  1  2  1  0  0  0  0
  1  5  1  0  0  0  0
  2  3  2  0  0  0  0
  2  6  1  0  0  0  0
  3  4  1  0  0  0  0
  4  5  1  0  0  0  0
  4  7  1  0  0  0  0
  4 24  1  1  0  0  0
  5 25  1  0  0  0  0
  5 26  1  0  0  0  0
  6 11  1  0  0  0  0
  6 14  1  0  0  0  0
  6 15  1  0  0  0  0
  7 20  1  0  0  0  0
  7 21  1  0  0  0  0
  7 22  1  0  0  0  0
  8  9  1  0  0  0  0
  8 12  1  0  0  0  0
  8 27  1  0  0  0  0
  8 28  1  0  0  0  0
  9 10  1  0  0  0  0
  9 13  1  0  0  0  0
  9 29  1  6  0  0  0
 10 11  2  0  0  0  0
 11 12  1  0  0  0  0
 13 18  1  0  0  0  0
 13 19  1  0  0  0  0
 13 23  1  0  0  0  0
 14 17  1  0  0  0  0
 14 30  1  0  0  0  0
 14 31  1  0  0  0  0
 15 16  1  0  0  0  0
 15 32  1  0  0  0  0
 15 33  1  0  0  0  0
 16 34  1  0  0  0  0
 16 35  1  0  0  0  0
 16 36  1  0  0  0  0
 17 37  1  0  0  0  0
 17 38  1  0  0  0  0
 17 39  1  0  0  0  0
 18 40  1  0  0  0  0
 18 41  1  0  0  0  0
 18 42  1  0  0  0  0
 19 43  1  0  0  0  0
 19 44  1  0  0  0  0
 19 45  1  0  0  0  0
 20 46  1  0  0  0  0
 20 47  1  0  0  0  0
 20 48  1  0  0  0  0
 21 49  1  0  0  0  0
 21 50  1  0  0  0  0
 21 51  1  0  0  0  0
 22 52  1  0  0  0  0
 22 53  1  0  0  0  0
 22 54  1  0  0  0  0
 23 55  1  0  0  0  0
 23 56  1  0  0  0  0
 23 57  1  0  0  0  0
M  END
$$$$
