Title Card Required
 OpenBabel03192317453D

 85 91  0  0  1  0  0  0  0  0999 V2000
   -1.1280   -4.0330    0.1349 C   0  0  0  0  0  0  0  0  0  0  0  0
   -1.0563   -2.6358    0.1203 C   0  0  0  0  0  0  0  0  0  0  0  0
    0.0856   -1.9635    0.2090 N   0  0  0  0  0  0  0  0  0  0  0  0
    1.2168   -2.6560    0.2974 C   0  0  0  0  0  0  0  0  0  0  0  0
    1.2651   -4.0530    0.3066 C   0  0  0  0  0  0  0  0  0  0  0  0
    0.0613   -4.7487    0.2317 C   0  0  0  0  0  0  0  0  0  0  0  0
   -2.3016   -1.8391   -0.0158 C   0  0  0  0  0  0  0  0  0  0  0  0
    2.4707   -1.8634    0.3151 C   0  0  0  0  0  0  0  0  0  0  0  0
   -2.1497   -0.5077   -0.0780 O   0  0  0  0  0  0  0  0  0  0  0  0
   -3.4633    0.0825   -0.1669 C   0  0  0  0  0  0  0  0  0  0  0  0
   -4.3965   -1.2056   -0.2468 C   0  0  1  0  0  0  0  0  0  0  0  0
   -3.4709   -2.3203   -0.0761 N   0  0  0  0  0  0  0  0  0  0  0  0
    3.6025   -2.2703   -0.0816 N   0  0  0  0  0  0  0  0  0  0  0  0
    4.5182   -1.1410    0.0693 C   0  0  2  0  0  0  0  0  0  0  0  0
    3.5649    0.0831    0.3399 C   0  0  0  0  0  0  0  0  0  0  0  0
    2.3604   -0.5907    0.7425 O   0  0  0  0  0  0  0  0  0  0  0  0
   -5.5892   -1.3013    0.7189 C   0  0  0  0  0  0  0  0  0  0  0  0
    5.5432   -1.0672   -1.0758 C   0  0  0  0  0  0  0  0  0  0  0  0
    6.6546   -2.0810   -0.7972 C   0  0  0  0  0  0  0  0  0  0  0  0
    4.9397   -1.3222   -2.4574 C   0  0  0  0  0  0  0  0  0  0  0  0
   -6.6840   -0.2959    0.3681 C   0  0  0  0  0  0  0  0  0  0  0  0
   -6.1647   -2.7177    0.7064 C   0  0  0  0  0  0  0  0  0  0  0  0
    4.0302    0.9758    1.4752 C   0  0  0  0  0  0  0  0  0  0  0  0
    5.3873    1.1867    1.7304 C   0  0  0  0  0  0  0  0  0  0  0  0
    5.7888    2.0533    2.7479 C   0  0  0  0  0  0  0  0  0  0  0  0
    4.8358    2.7070    3.5248 C   0  0  0  0  0  0  0  0  0  0  0  0
    3.4788    2.4941    3.2777 C   0  0  0  0  0  0  0  0  0  0  0  0
    3.0771    1.6383    2.2557 C   0  0  0  0  0  0  0  0  0  0  0  0
    3.2216    0.9154   -0.8963 C   0  0  0  0  0  0  0  0  0  0  0  0
    4.1116    1.8839   -1.3739 C   0  0  0  0  0  0  0  0  0  0  0  0
    3.8356    2.5810   -2.5478 C   0  0  0  0  0  0  0  0  0  0  0  0
    2.6561    2.3325   -3.2503 C   0  0  0  0  0  0  0  0  0  0  0  0
    1.7482    1.3971   -2.7581 C   0  0  0  0  0  0  0  0  0  0  0  0
    2.0229    0.6951   -1.5836 C   0  0  0  0  0  0  0  0  0  0  0  0
   -3.4877    0.9490   -1.4183 C   0  0  0  0  0  0  0  0  0  0  0  0
   -4.6491    1.1414   -2.1687 C   0  0  0  0  0  0  0  0  0  0  0  0
   -4.6486    1.9988   -3.2708 C   0  0  0  0  0  0  0  0  0  0  0  0
   -3.4840    2.6685   -3.6360 C   0  0  0  0  0  0  0  0  0  0  0  0
   -2.3191    2.4793   -2.8911 C   0  0  0  0  0  0  0  0  0  0  0  0
   -2.3203    1.6282   -1.7890 C   0  0  0  0  0  0  0  0  0  0  0  0
   -3.6389    0.9246    1.0989 C   0  0  0  0  0  0  0  0  0  0  0  0
   -4.2950    2.1583    1.0914 C   0  0  0  0  0  0  0  0  0  0  0  0
   -4.4586    2.8843    2.2718 C   0  0  0  0  0  0  0  0  0  0  0  0
   -3.9579    2.3916    3.4738 C   0  0  0  0  0  0  0  0  0  0  0  0
   -3.2838    1.1704    3.4876 C   0  0  0  0  0  0  0  0  0  0  0  0
   -3.1218    0.4463    2.3097 C   0  0  0  0  0  0  0  0  0  0  0  0
   -2.1032   -4.5140    0.0606 H   0  0  0  0  0  0  0  0  0  0  0  0
    2.2317   -4.5529    0.3658 H   0  0  0  0  0  0  0  0  0  0  0  0
    0.0511   -5.8393    0.2416 H   0  0  0  0  0  0  0  0  0  0  0  0
   -4.8035   -1.2812   -1.2709 H   0  0  0  0  0  0  0  0  0  0  0  0
    5.0814   -1.3109    1.0042 H   0  0  0  0  0  0  0  0  0  0  0  0
   -5.2214   -1.0862    1.7349 H   0  0  0  0  0  0  0  0  0  0  0  0
    5.9822   -0.0548   -1.0647 H   0  0  0  0  0  0  0  0  0  0  0  0
    6.2217   -3.0892   -0.7114 H   0  0  0  0  0  0  0  0  0  0  0  0
    7.3933   -2.0910   -1.6110 H   0  0  0  0  0  0  0  0  0  0  0  0
    7.1820   -1.8571    0.1426 H   0  0  0  0  0  0  0  0  0  0  0  0
    4.1634   -0.5943   -2.7252 H   0  0  0  0  0  0  0  0  0  0  0  0
    5.7285   -1.2699   -3.2219 H   0  0  0  0  0  0  0  0  0  0  0  0
    4.4945   -2.3271   -2.4870 H   0  0  0  0  0  0  0  0  0  0  0  0
   -7.1157   -0.5294   -0.6195 H   0  0  0  0  0  0  0  0  0  0  0  0
   -7.4992   -0.3497    1.1036 H   0  0  0  0  0  0  0  0  0  0  0  0
   -6.3200    0.7400    0.3519 H   0  0  0  0  0  0  0  0  0  0  0  0
   -5.4232   -3.4549    1.0347 H   0  0  0  0  0  0  0  0  0  0  0  0
   -7.0435   -2.7758    1.3650 H   0  0  0  0  0  0  0  0  0  0  0  0
   -6.4855   -2.9940   -0.3112 H   0  0  0  0  0  0  0  0  0  0  0  0
    6.1448    0.6708    1.1354 H   0  0  0  0  0  0  0  0  0  0  0  0
    6.8520    2.2103    2.9364 H   0  0  0  0  0  0  0  0  0  0  0  0
    5.1490    3.3793    4.3250 H   0  0  0  0  0  0  0  0  0  0  0  0
    2.7268    2.9996    3.8855 H   0  0  0  0  0  0  0  0  0  0  0  0
    2.0177    1.4675    2.0575 H   0  0  0  0  0  0  0  0  0  0  0  0
    5.0280    2.1007   -0.8212 H   0  0  0  0  0  0  0  0  0  0  0  0
    4.5431    3.3275   -2.9125 H   0  0  0  0  0  0  0  0  0  0  0  0
    2.4409    2.8770   -4.1710 H   0  0  0  0  0  0  0  0  0  0  0  0
    0.8133    1.2062   -3.2883 H   0  0  0  0  0  0  0  0  0  0  0  0
    1.2933   -0.0174   -1.1947 H   0  0  0  0  0  0  0  0  0  0  0  0
   -5.5715    0.6278   -1.8956 H   0  0  0  0  0  0  0  0  0  0  0  0
   -5.5656    2.1380   -3.8454 H   0  0  0  0  0  0  0  0  0  0  0  0
   -3.4825    3.3356   -4.4993 H   0  0  0  0  0  0  0  0  0  0  0  0
   -1.4016    3.0028   -3.1660 H   0  0  0  0  0  0  0  0  0  0  0  0
   -1.4104    1.4813   -1.2049 H   0  0  0  0  0  0  0  0  0  0  0  0
   -4.6773    2.5652    0.1536 H   0  0  0  0  0  0  0  0  0  0  0  0
   -4.9738    3.8457    2.2449 H   0  0  0  0  0  0  0  0  0  0  0  0
   -4.0817    2.9607    4.3964 H   0  0  0  0  0  0  0  0  0  0  0  0
   -2.8736    0.7813    4.4208 H   0  0  0  0  0  0  0  0  0  0  0  0
   -2.5721   -0.4964    2.3287 H   0  0  0  0  0  0  0  0  0  0  0  0
  1  2  2  0  0  0  0
  1  6  1  0  0  0  0
  1 47  1  0  0  0  0
  2  3  1  0  0  0  0
  2  7  1  0  0  0  0
  3  4  2  0  0  0  0
  4  5  1  0  0  0  0
  4  8  1  0  0  0  0
  5  6  2  0  0  0  0
  5 48  1  0  0  0  0
  6 49  1  0  0  0  0
  7  9  1  0  0  0  0
  7 12  2  0  0  0  0
  8 13  2  0  0  0  0
  8 16  1  0  0  0  0
  9 10  1  0  0  0  0
 10 11  1  0  0  0  0
 10 35  1  0  0  0  0
 10 41  1  0  0  0  0
 11 12  1  0  0  0  0
 11 17  1  0  0  0  0
 11 50  1  6  0  0  0
 13 14  1  0  0  0  0
 14 15  1  0  0  0  0
 14 18  1  0  0  0  0
 14 51  1  1  0  0  0
 15 16  1  0  0  0  0
 15 23  1  0  0  0  0
 15 29  1  0  0  0  0
 17 21  1  0  0  0  0
 17 22  1  0  0  0  0
 17 52  1  0  0  0  0
 18 19  1  0  0  0  0
 18 20  1  0  0  0  0
 18 53  1  0  0  0  0
 19 54  1  0  0  0  0
 19 55  1  0  0  0  0
 19 56  1  0  0  0  0
 20 57  1  0  0  0  0
 20 58  1  0  0  0  0
 20 59  1  0  0  0  0
 21 60  1  0  0  0  0
 21 61  1  0  0  0  0
 21 62  1  0  0  0  0
 22 63  1  0  0  0  0
 22 64  1  0  0  0  0
 22 65  1  0  0  0  0
 23 24  2  0  0  0  0
 23 28  1  0  0  0  0
 24 25  1  0  0  0  0
 24 66  1  0  0  0  0
 25 26  2  0  0  0  0
 25 67  1  0  0  0  0
 26 27  1  0  0  0  0
 26 68  1  0  0  0  0
 27 28  2  0  0  0  0
 27 69  1  0  0  0  0
 28 70  1  0  0  0  0
 29 30  2  0  0  0  0
 29 34  1  0  0  0  0
 30 31  1  0  0  0  0
 30 71  1  0  0  0  0
 31 32  2  0  0  0  0
 31 72  1  0  0  0  0
 32 33  1  0  0  0  0
 32 73  1  0  0  0  0
 33 34  2  0  0  0  0
 33 74  1  0  0  0  0
 34 75  1  0  0  0  0
 35 36  2  0  0  0  0
 35 40  1  0  0  0  0
 36 37  1  0  0  0  0
 36 76  1  0  0  0  0
 37 38  2  0  0  0  0
 37 77  1  0  0  0  0
 38 39  1  0  0  0  0
 38 78  1  0  0  0  0
 39 40  2  0  0  0  0
 39 79  1  0  0  0  0
 40 80  1  0  0  0  0
 41 42  2  0  0  0  0
 41 46  1  0  0  0  0
 42 43  1  0  0  0  0
 42 81  1  0  0  0  0
 43 44  2  0  0  0  0
 43 82  1  0  0  0  0
 44 45  1  0  0  0  0
 44 83  1  0  0  0  0
 45 46  2  0  0  0  0
 45 84  1  0  0  0  0
 46 85  1  0  0  0  0
M  END
$$$$
