Title Card Required
 OpenBabel03192317433D

 22 23  0  0  1  0  0  0  0  0999 V2000
   -1.2248    0.9270   -0.1327 C   0  0  2  0  0  0  0  0  0  0  0  0
   -1.9330   -0.4516   -0.0176 C   0  0  2  0  0  0  0  0  0  0  0  0
   -0.9357   -1.3514    0.7225 C   0  0  0  0  0  0  0  0  0  0  0  0
    0.4017   -0.7610    0.3388 C   0  0  0  0  0  0  0  0  0  0  0  0
    1.6759   -1.3119    0.4482 C   0  0  0  0  0  0  0  0  0  0  0  0
    2.7773   -0.5519    0.0499 C   0  0  0  0  0  0  0  0  0  0  0  0
    2.6082    0.7450   -0.4421 C   0  0  0  0  0  0  0  0  0  0  0  0
    1.3310    1.2984   -0.5477 C   0  0  0  0  0  0  0  0  0  0  0  0
    0.2351    0.5311   -0.1670 C   0  0  0  0  0  0  0  0  0  0  0  0
   -2.1235   -1.0327   -1.2850 O   0  0  0  0  0  0  0  0  0  0  0  0
   -1.4538    1.8601    0.9584 N   0  0  0  0  0  0  0  0  0  0  0  0
   -1.5368    1.4156   -1.0733 H   0  0  0  0  0  0  0  0  0  0  0  0
   -2.8927   -0.3491    0.5247 H   0  0  0  0  0  0  0  0  0  0  0  0
   -1.0837   -1.3082    1.8138 H   0  0  0  0  0  0  0  0  0  0  0  0
   -1.0643   -2.3950    0.4044 H   0  0  0  0  0  0  0  0  0  0  0  0
    1.8137   -2.3230    0.8367 H   0  0  0  0  0  0  0  0  0  0  0  0
    3.7810   -0.9742    0.1245 H   0  0  0  0  0  0  0  0  0  0  0  0
    3.4805    1.3270   -0.7442 H   0  0  0  0  0  0  0  0  0  0  0  0
    1.1904    2.3146   -0.9211 H   0  0  0  0  0  0  0  0  0  0  0  0
   -2.6129   -0.4133   -1.8367 H   0  0  0  0  0  0  0  0  0  0  0  0
   -2.4501    2.0165    1.1014 H   0  0  0  0  0  0  0  0  0  0  0  0
   -1.0747    1.4874    1.8275 H   0  0  0  0  0  0  0  0  0  0  0  0
  1  2  1  0  0  0  0
  1  9  1  0  0  0  0
  1 11  1  0  0  0  0
  1 12  1  6  0  0  0
  2  3  1  0  0  0  0
  2 10  1  0  0  0  0
  2 13  1  1  0  0  0
  3  4  1  0  0  0  0
  3 14  1  0  0  0  0
  3 15  1  0  0  0  0
  4  5  2  0  0  0  0
  4  9  1  0  0  0  0
  5  6  1  0  0  0  0
  5 16  1  0  0  0  0
  6  7  2  0  0  0  0
  6 17  1  0  0  0  0
  7  8  1  0  0  0  0
  7 18  1  0  0  0  0
  8  9  2  0  0  0  0
  8 19  1  0  0  0  0
 10 20  1  0  0  0  0
 11 21  1  0  0  0  0
 11 22  1  0  0  0  0
M  END
$$$$
