Title Card Required
 OpenBabel03192317433D

 61 69  0  0  1  0  0  0  0  0999 V2000
    2.0275    3.2979    0.7313 C   0  0  0  0  0  0  0  0  0  0  0  0
   -0.6197    1.9524   -2.1307 C   0  0  0  0  0  3  0  0  0  0  0  0
    0.5676    2.5173   -2.7505 C   0  0  0  0  0  3  0  0  0  0  0  0
    1.5811    1.9208   -2.3384 C   0  0  0  0  0  3  0  0  0  0  0  0
    1.2963    0.8118   -1.4156 C   0  0  0  0  0  0  0  0  0  0  0  0
   -0.0942    0.8203   -1.3801 C   0  0  1  0  0  3  0  0  0  0  0  0
   -3.4438    3.3481   -1.6158 C   0  0  0  0  0  3  0  0  0  0  0  0
   -2.5126    3.6318   -2.4424 C   0  0  0  0  0  3  0  0  0  0  0  0
   -1.9207    2.3218   -1.9739 C   0  0  0  0  0  3  0  0  0  0  0  0
   -2.8339    1.5809   -1.0096 C   0  0  0  0  0  3  0  0  0  0  0  0
   -3.9511    2.3583   -0.7217 C   0  0  0  0  0  3  0  0  0  0  0  0
    2.8555    2.3677    3.6081 C   0  0  0  0  0  0  0  0  0  0  0  0
    2.8222    1.7565    1.7212 Fe  0  0  0  0  0  0  0  0  0  0  0  0
   -1.0399   -0.0108   -0.7099 C   0  0  0  0  0  0  0  0  0  0  0  0
   -0.7027   -1.2267   -0.3647 O   0  0  0  0  0  0  0  0  0  0  0  0
   -1.8015   -1.8373    0.3059 C   0  0  0  0  0  0  0  0  0  0  0  0
   -2.8271   -0.7246    0.5119 C   0  0  1  0  0  0  0  0  0  0  0  0
   -2.2723    0.3619   -0.4330 N   0  0  0  0  0  0  0  0  0  0  0  0
    2.5697    0.1826   -0.2845 P   0  0  2  0  0  0  0  0  0  0  0  0
    3.4077   -1.1488   -1.2026 C   0  0  0  0  0  0  0  0  0  0  0  0
    2.6878   -2.0299   -2.0189 C   0  0  0  0  0  0  0  0  0  0  0  0
    3.3535   -3.0518   -2.6918 C   0  0  0  0  0  0  0  0  0  0  0  0
    4.7342   -3.1983   -2.5490 C   0  0  0  0  0  0  0  0  0  0  0  0
    5.4518   -2.3233   -1.7344 C   0  0  0  0  0  0  0  0  0  0  0  0
    4.7900   -1.2952   -1.0634 C   0  0  0  0  0  0  0  0  0  0  0  0
    1.6658   -0.6725    1.0755 C   0  0  0  0  0  0  0  0  0  0  0  0
    1.8308   -2.0174    1.4257 C   0  0  0  0  0  0  0  0  0  0  0  0
    1.2195   -2.5081    2.5789 C   0  0  0  0  0  0  0  0  0  0  0  0
    0.4488   -1.6683    3.3912 C   0  0  0  0  0  0  0  0  0  0  0  0
    0.3040   -0.3224    3.0597 C   0  0  0  0  0  0  0  0  0  0  0  0
    0.9228    0.1733    1.9104 C   0  0  0  0  0  0  0  0  0  0  0  0
   -4.2581   -1.1709    0.3747 C   0  0  0  0  0  0  0  0  0  0  0  0
   -4.6733   -2.4993    0.2438 C   0  0  0  0  0  0  0  0  0  0  0  0
   -6.0393   -2.7795    0.1866 C   0  0  0  0  0  0  0  0  0  0  0  0
   -6.9791   -1.7527    0.2572 C   0  0  0  0  0  0  0  0  0  0  0  0
   -6.5641   -0.4296    0.4253 C   0  0  0  0  0  0  0  0  0  0  0  0
   -5.2055   -0.1626    0.5110 C   0  0  0  0  0  0  0  0  0  0  0  0
    2.6762    3.5908   -0.1187 H   0  0  0  0  0  0  0  0  0  0  0  0
    1.9539    4.1761    1.3939 H   0  0  0  0  0  0  0  0  0  0  0  0
    1.0192    3.1581    0.2942 H   0  0  0  0  0  0  0  0  0  0  0  0
    1.8609    2.6996    3.9545 H   0  0  0  0  0  0  0  0  0  0  0  0
    3.1815    1.5672    4.3037 H   0  0  0  0  0  0  0  0  0  0  0  0
    3.5414    3.2199    3.7585 H   0  0  0  0  0  0  0  0  0  0  0  0
   -1.4130   -2.2274    1.2531 H   0  0  0  0  0  0  0  0  0  0  0  0
   -2.1779   -2.6564   -0.3179 H   0  0  0  0  0  0  0  0  0  0  0  0
   -2.7223   -0.3075    1.5280 H   0  0  0  0  0  0  0  0  0  0  0  0
    1.6053   -1.9133   -2.1204 H   0  0  0  0  0  0  0  0  0  0  0  0
    2.7924   -3.7348   -3.3312 H   0  0  0  0  0  0  0  0  0  0  0  0
    5.2525   -3.9977   -3.0810 H   0  0  0  0  0  0  0  0  0  0  0  0
    6.5314   -2.4347   -1.6264 H   0  0  0  0  0  0  0  0  0  0  0  0
    5.3516   -0.6003   -0.4346 H   0  0  0  0  0  0  0  0  0  0  0  0
    2.4285   -2.6753    0.7920 H   0  0  0  0  0  0  0  0  0  0  0  0
    1.3468   -3.5571    2.8528 H   0  0  0  0  0  0  0  0  0  0  0  0
   -0.0172   -2.0648    4.2948 H   0  0  0  0  0  0  0  0  0  0  0  0
   -0.2622    0.3520    3.7035 H   0  0  0  0  0  0  0  0  0  0  0  0
    0.7881    1.2254    1.6346 H   0  0  0  0  0  0  0  0  0  0  0  0
   -3.9683   -3.3291    0.1822 H   0  0  0  0  0  0  0  0  0  0  0  0
   -6.3701   -3.8136    0.0790 H   0  0  0  0  0  0  0  0  0  0  0  0
   -8.0429   -1.9881    0.1953 H   0  0  0  0  0  0  0  0  0  0  0  0
   -7.2899    0.3803    0.5048 H   0  0  0  0  0  0  0  0  0  0  0  0
   -4.7461    0.8070    0.6797 H   0  0  0  0  0  0  0  0  0  0  0  0
  1 13  1  0  0  0  0
  1 38  1  0  0  0  0
  1 39  1  0  0  0  0
  1 40  1  0  0  0  0
  2  3  2  0  0  0  0
  3  4  1  0  0  0  0
  4  5  2  0  0  0  0
  5  6  1  0  0  0  0
  5 19  1  0  0  0  0
  6  2  1  1  0  0  0
  6 14  1  0  0  0  0
  7  8  1  0  0  0  0
  7 11  1  0  0  0  0
  7 40  1  0  0  0  0
  8  9  2  0  0  0  0
  9 10  1  0  0  0  0
 10 11  1  0  0  0  0
 10 61  1  0  0  0  0
 11 61  1  0  0  0  0
 12 13  1  0  0  0  0
 12 41  1  0  0  0  0
 12 42  1  0  0  0  0
 12 43  1  0  0  0  0
 13 56  1  0  0  0  0
 14 15  1  0  0  0  0
 14 18  2  0  0  0  0
 15 16  1  0  0  0  0
 16 17  1  0  0  0  0
 16 44  1  0  0  0  0
 16 45  1  0  0  0  0
 17 18  1  0  0  0  0
 17 32  1  0  0  0  0
 17 46  1  1  0  0  0
 19 20  1  6  0  0  0
 19 26  1  0  0  0  0
 20 21  2  0  0  0  0
 20 25  1  0  0  0  0
 21 22  1  0  0  0  0
 21 47  1  0  0  0  0
 22 23  2  0  0  0  0
 22 48  1  0  0  0  0
 23 24  1  0  0  0  0
 23 49  1  0  0  0  0
 24 25  2  0  0  0  0
 24 50  1  0  0  0  0
 25 51  1  0  0  0  0
 26 27  2  0  0  0  0
 26 31  1  0  0  0  0
 27 28  1  0  0  0  0
 27 52  1  0  0  0  0
 28 29  2  0  0  0  0
 28 53  1  0  0  0  0
 29 30  1  0  0  0  0
 29 54  1  0  0  0  0
 30 31  2  0  0  0  0
 30 55  1  0  0  0  0
 31 56  1  0  0  0  0
 32 33  2  0  0  0  0
 32 37  1  0  0  0  0
 33 34  1  0  0  0  0
 33 57  1  0  0  0  0
 34 35  2  0  0  0  0
 34 58  1  0  0  0  0
 35 36  1  0  0  0  0
 35 59  1  0  0  0  0
 36 37  2  0  0  0  0
 36 60  1  0  0  0  0
 37 61  1  0  0  0  0
 40 56  1  0  0  0  0
M  END
$$$$
