Title Card Required
 OpenBabel03192317523D

 70 76  0  0  1  0  0  0  0  0999 V2000
   -0.6257    1.2640    0.2588 P   0  0  2  0  0  0  0  0  0  0  0  0
    0.3144    2.6456   -0.4416 C   0  0  0  0  0  0  0  0  0  0  0  0
   -1.9289    1.8826    1.3709 C   0  0  0  0  0  0  0  0  0  0  0  0
   -3.0802    2.4801    0.8119 C   0  0  0  0  0  0  0  0  0  0  0  0
   -4.2569    2.6873    1.5455 C   0  0  0  0  0  0  0  0  0  0  0  0
   -4.3037    2.3383    2.8861 C   0  0  0  0  0  0  0  0  0  0  0  0
   -3.1552    1.8380    3.4956 C   0  0  0  0  0  0  0  0  0  0  0  0
   -1.9782    1.6283    2.7485 C   0  0  0  0  0  0  0  0  0  0  0  0
    1.7061    2.5821   -0.6213 C   0  0  0  0  0  0  0  0  0  0  0  0
    2.4098    3.5848   -1.3082 C   0  0  0  0  0  0  0  0  0  0  0  0
    1.7367    4.6810   -1.8369 C   0  0  0  0  0  0  0  0  0  0  0  0
    0.3675    4.7830   -1.6701 C   0  0  0  0  0  0  0  0  0  0  0  0
   -0.3295    3.7791   -0.9794 C   0  0  0  0  0  0  0  0  0  0  0  0
    2.6372   -1.1683    0.2618 C   0  0  0  0  0  0  0  0  0  0  0  0
    3.5843   -0.7546   -0.5025 N   0  0  0  0  0  0  0  0  0  0  0  0
    4.7774   -1.4446    0.0241 C   0  0  2  0  0  0  0  0  0  0  0  0
    4.3263   -2.0507    1.3463 C   0  0  0  0  0  0  0  0  0  0  0  0
    2.9076   -1.9761    1.3087 O   0  0  0  0  0  0  0  0  0  0  0  0
    5.9532   -0.4778    0.1737 C   0  0  0  0  0  0  0  0  0  0  0  0
    7.1968   -1.2258    0.6611 C   0  0  0  0  0  0  0  0  0  0  0  0
    6.2576    0.2359   -1.1454 C   0  0  0  0  0  0  0  0  0  0  0  0
    1.1857   -0.9518   -0.0310 C   0  0  1  0  0  0  0  0  0  0  0  0
    0.5767   -2.3630    0.0076 C   0  0  0  0  0  0  0  0  0  0  0  0
    0.4700   -0.0387    1.0047 C   0  0  2  0  0  0  0  0  0  0  0  0
   -0.2882   -1.0498    1.8919 C   0  0  0  0  0  0  0  0  0  0  0  0
   -0.2170   -2.4510    1.2895 C   0  0  0  0  0  0  0  0  0  0  0  0
   -3.0995    2.7863   -0.2304 H   0  0  0  0  0  0  0  0  0  0  0  0
   -5.1303    3.1320    1.0681 H   0  0  0  0  0  0  0  0  0  0  0  0
   -5.2133    2.4981    3.4625 H   0  0  0  0  0  0  0  0  0  0  0  0
   -3.1738    1.6140    4.5620 H   0  0  0  0  0  0  0  0  0  0  0  0
   -1.1098    1.2474    3.2773 H   0  0  0  0  0  0  0  0  0  0  0  0
    2.2917    1.7464   -0.2467 H   0  0  0  0  0  0  0  0  0  0  0  0
    3.4876    3.4962   -1.4405 H   0  0  0  0  0  0  0  0  0  0  0  0
    2.2933    5.4521   -2.3751 H   0  0  0  0  0  0  0  0  0  0  0  0
   -0.1613    5.6415   -2.0820 H   0  0  0  0  0  0  0  0  0  0  0  0
   -1.4015    3.9207   -0.8998 H   0  0  0  0  0  0  0  0  0  0  0  0
    5.0343   -2.2440   -0.6846 H   0  0  0  0  0  0  0  0  0  0  0  0
    4.6369   -3.0982    1.4344 H   0  0  0  0  0  0  0  0  0  0  0  0
    4.6655   -1.5025    2.2274 H   0  0  0  0  0  0  0  0  0  0  0  0
    5.6929    0.2887    0.9152 H   0  0  0  0  0  0  0  0  0  0  0  0
    7.4924   -2.0037   -0.0521 H   0  0  0  0  0  0  0  0  0  0  0  0
    8.0383   -0.5394    0.7860 H   0  0  0  0  0  0  0  0  0  0  0  0
    7.0189   -1.7098    1.6273 H   0  0  0  0  0  0  0  0  0  0  0  0
    5.4010    0.8311   -1.4802 H   0  0  0  0  0  0  0  0  0  0  0  0
    7.1031    0.9199   -1.0266 H   0  0  0  0  0  0  0  0  0  0  0  0
    6.5026   -0.4799   -1.9370 H   0  0  0  0  0  0  0  0  0  0  0  0
    1.3150   -3.1775   -0.0245 H   0  0  0  0  0  0  0  0  0  0  0  0
    0.1875   -1.0746    2.8793 H   0  0  0  0  0  0  0  0  0  0  0  0
    0.2715   -3.1346    1.9941 H   0  0  0  0  0  0  0  0  0  0  0  0
   -3.5065   -4.2154   -0.5024 Fe  0  0  0  0  0  0  0  0  0  0  0  0
   -2.1389   -1.3954   -1.5124 C   0  0  0  0  0  0  0  0  0  0  0  0
   -3.3544   -0.1223   -3.1276 C   0  0  0  0  0  0  0  0  0  0  0  0
   -3.9093    0.2001   -1.7445 C   0  0  0  0  0  0  0  0  0  0  0  0
   -3.3578   -0.8466   -0.7955 C   0  0  0  0  0  0  0  0  0  0  0  0
   -2.4824   -1.3576   -2.9769 C   0  0  0  0  0  0  0  0  0  0  0  0
   -1.9273   -2.4038   -1.1744 H   0  0  0  0  0  0  0  0  0  0  0  0
   -2.7512    0.7203   -3.4855 H   0  0  0  0  0  0  0  0  0  0  0  0
   -3.5712    1.1979   -1.4712 H   0  0  0  0  0  0  0  0  0  0  0  0
   -3.1274   -0.4532    0.1983 H   0  0  0  0  0  0  0  0  0  0  0  0
   -3.0295   -2.2636   -3.2512 H   0  0  0  0  0  0  0  0  0  0  0  0
    1.1174   -0.5639   -1.0557 H   0  0  0  0  0  0  0  0  0  0  0  0
   -0.0185   -2.5631   -0.8795 H   0  0  0  0  0  0  0  0  0  0  0  0
    1.2049    0.4896    1.6217 H   0  0  0  0  0  0  0  0  0  0  0  0
   -1.3395   -0.8105    2.0594 H   0  0  0  0  0  0  0  0  0  0  0  0
   -1.2170   -2.8593    1.1091 H   0  0  0  0  0  0  0  0  0  0  0  0
   -1.2623   -0.7578   -1.3578 H   0  0  0  0  0  0  0  0  0  0  0  0
   -4.1523   -0.2926   -3.8542 H   0  0  0  0  0  0  0  0  0  0  0  0
   -5.0027    0.2114   -1.7191 H   0  0  0  0  0  0  0  0  0  0  0  0
   -4.0934   -1.6420   -0.6441 H   0  0  0  0  0  0  0  0  0  0  0  0
   -1.5786   -1.3042   -3.5929 H   0  0  0  0  0  0  0  0  0  0  0  0
  1  2  1  1  0  0  0
  1  3  1  0  0  0  0
  1 24  1  0  0  0  0
  2  9  2  0  0  0  0
  2 13  1  0  0  0  0
  3  4  2  0  0  0  0
  3  8  1  0  0  0  0
  4  5  1  0  0  0  0
  4 27  1  0  0  0  0
  5  6  2  0  0  0  0
  5 28  1  0  0  0  0
  6  7  1  0  0  0  0
  6 29  1  0  0  0  0
  7  8  2  0  0  0  0
  7 30  1  0  0  0  0
  8 31  1  0  0  0  0
  9 10  1  0  0  0  0
  9 32  1  0  0  0  0
 10 11  2  0  0  0  0
 10 33  1  0  0  0  0
 11 12  1  0  0  0  0
 11 34  1  0  0  0  0
 12 13  2  0  0  0  0
 12 35  1  0  0  0  0
 13 36  1  0  0  0  0
 14 15  2  0  0  0  0
 14 18  1  0  0  0  0
 14 22  1  0  0  0  0
 15 16  1  0  0  0  0
 16 17  1  0  0  0  0
 16 19  1  0  0  0  0
 16 37  1  6  0  0  0
 17 18  1  0  0  0  0
 17 38  1  0  0  0  0
 17 39  1  0  0  0  0
 19 20  1  0  0  0  0
 19 21  1  0  0  0  0
 19 40  1  0  0  0  0
 20 41  1  0  0  0  0
 20 42  1  0  0  0  0
 20 43  1  0  0  0  0
 21 44  1  0  0  0  0
 21 45  1  0  0  0  0
 21 46  1  0  0  0  0
 22 23  1  0  0  0  0
 22 24  1  0  0  0  0
 22 61  1  6  0  0  0
 23 26  1  0  0  0  0
 23 47  1  0  0  0  0
 23 62  1  0  0  0  0
 24 25  1  0  0  0  0
 24 63  1  1  0  0  0
 25 26  1  0  0  0  0
 25 48  1  0  0  0  0
 25 64  1  0  0  0  0
 26 49  1  0  0  0  0
 26 65  1  0  0  0  0
 27 58  1  0  0  0  0
 50 56  1  0  0  0  0
 50 69  1  0  0  0  0
 51 54  1  0  0  0  0
 51 55  1  0  0  0  0
 51 56  1  0  0  0  0
 51 66  1  0  0  0  0
 52 53  1  0  0  0  0
 52 55  1  0  0  0  0
 52 57  1  0  0  0  0
 52 67  1  0  0  0  0
 53 54  1  0  0  0  0
 53 58  1  0  0  0  0
 53 68  1  0  0  0  0
 54 59  1  0  0  0  0
 54 69  1  0  0  0  0
 55 60  1  0  0  0  0
 55 70  1  0  0  0  0
 56 62  1  0  0  0  0
M  END
$$$$
