Title Card Required
 OpenBabel03192317573D

 27 28  0  0  1  0  0  0  0  0999 V2000
   -0.1768   -1.6558    0.1042 O   0  0  0  0  0  0  0  0  0  0  0  0
    0.2045   -0.3687    0.1797 C   0  0  0  0  0  0  0  0  0  0  0  0
   -0.6805    0.5206    0.3689 N   0  0  0  0  0  0  0  0  0  0  0  0
   -1.9624   -0.1765    0.4771 C   0  0  2  0  0  0  0  0  0  0  0  0
   -1.6059   -1.6428    0.1301 C   0  0  0  0  0  0  0  0  0  0  0  0
    1.6542   -0.0887    0.0500 C   0  0  0  0  0  0  0  0  0  0  0  0
    2.1094    1.2340    0.1623 C   0  0  0  0  0  0  0  0  0  0  0  0
    2.4868   -1.1016   -0.1690 N   0  0  0  0  0  0  0  0  0  0  0  0
    3.3968    1.5345    0.0521 N   0  0  0  0  0  0  0  0  0  0  0  0
    4.2300    0.5199   -0.1671 C   0  0  0  0  0  0  0  0  0  0  0  0
    3.7750   -0.7960   -0.2768 C   0  0  0  0  0  0  0  0  0  0  0  0
   -3.0412    0.4343   -0.4204 C   0  0  0  0  0  0  0  0  0  0  0  0
   -4.3525   -0.3351   -0.2748 C   0  0  0  0  0  0  0  0  0  0  0  0
   -3.2306    1.9156   -0.1111 C   0  0  0  0  0  0  0  0  0  0  0  0
   -2.3089   -0.0884    1.5240 H   0  0  0  0  0  0  0  0  0  0  0  0
   -1.9540   -2.3793    0.8646 H   0  0  0  0  0  0  0  0  0  0  0  0
   -1.9733   -1.9300   -0.8691 H   0  0  0  0  0  0  0  0  0  0  0  0
    1.3935    2.0389    0.3444 H   0  0  0  0  0  0  0  0  0  0  0  0
    5.2948    0.7516   -0.2599 H   0  0  0  0  0  0  0  0  0  0  0  0
    4.4748   -1.6168   -0.4563 H   0  0  0  0  0  0  0  0  0  0  0  0
   -2.6811    0.3346   -1.4603 H   0  0  0  0  0  0  0  0  0  0  0  0
   -4.7262   -0.2637    0.7594 H   0  0  0  0  0  0  0  0  0  0  0  0
   -5.1242    0.0800   -0.9385 H   0  0  0  0  0  0  0  0  0  0  0  0
   -4.2410   -1.4018   -0.5214 H   0  0  0  0  0  0  0  0  0  0  0  0
   -2.2820    2.4575   -0.2110 H   0  0  0  0  0  0  0  0  0  0  0  0
   -3.9719    2.3643   -0.7879 H   0  0  0  0  0  0  0  0  0  0  0  0
   -3.5914    2.0487    0.9215 H   0  0  0  0  0  0  0  0  0  0  0  0
  1  2  1  0  0  0  0
  1  5  1  0  0  0  0
  2  3  2  0  0  0  0
  2  6  1  0  0  0  0
  3  4  1  0  0  0  0
  4  5  1  0  0  0  0
  4 12  1  0  0  0  0
  4 15  1  1  0  0  0
  5 16  1  0  0  0  0
  5 17  1  0  0  0  0
  6  7  2  0  0  0  0
  6  8  1  0  0  0  0
  7  9  1  0  0  0  0
  7 18  1  0  0  0  0
  8 11  2  0  0  0  0
  9 10  2  0  0  0  0
 10 11  1  0  0  0  0
 10 19  1  0  0  0  0
 11 20  1  0  0  0  0
 12 13  1  0  0  0  0
 12 14  1  0  0  0  0
 12 21  1  0  0  0  0
 13 22  1  0  0  0  0
 13 23  1  0  0  0  0
 13 24  1  0  0  0  0
 14 25  1  0  0  0  0
 14 26  1  0  0  0  0
 14 27  1  0  0  0  0
M  END
$$$$
