Title Card Required
 OpenBabel03192317523D

 38 42  0  0  0  0  0  0  0  0999 V2000
   -1.0874   -3.0107   -0.9854 O   0  0  0  0  0  0  0  0  0  0  0  0
   -0.0224   -2.4411    0.0459 P   0  0  0  0  0  0  0  0  0  0  0  0
   -0.8170   -1.3756    0.9873 O   0  0  0  0  0  0  0  0  0  0  0  0
   -1.4505   -0.3095    0.4077 C   0  0  0  0  0  0  0  0  0  0  0  0
   -2.8698   -0.3286    0.3164 C   0  0  0  0  0  0  0  0  0  0  0  0
   -3.8097   -1.8150    0.9870 Br  0  0  0  0  0  0  0  0  0  0  0  0
   -3.5352    0.7239   -0.2543 C   0  0  0  0  0  0  0  0  0  0  0  0
   -2.8146    1.8166   -0.8041 C   0  0  0  0  0  0  0  0  0  0  0  0
   -3.4983    2.8842   -1.4488 C   0  0  0  0  0  0  0  0  0  0  0  0
   -2.8007    3.9125   -2.0299 C   0  0  0  0  0  0  0  0  0  0  0  0
   -1.3850    3.9094   -2.0027 C   0  0  0  0  0  0  0  0  0  0  0  0
   -0.6975    2.8986   -1.3761 C   0  0  0  0  0  0  0  0  0  0  0  0
   -1.3909    1.8319   -0.7385 C   0  0  0  0  0  0  0  0  0  0  0  0
   -0.7112    0.7592   -0.0687 C   0  0  0  0  0  0  0  0  0  0  0  0
    0.7691    0.7363    0.0933 C   0  0  0  0  0  0  0  0  0  0  0  0
    1.4868    1.7953    0.7441 C   0  0  0  0  0  0  0  0  0  0  0  0
    0.8342    2.8940    1.3692 C   0  0  0  0  0  0  0  0  0  0  0  0
    1.5595    3.8889    1.9789 C   0  0  0  0  0  0  0  0  0  0  0  0
    2.9743    3.8419    2.0002 C   0  0  0  0  0  0  0  0  0  0  0  0
    3.6323    2.7815    1.4300 C   0  0  0  0  0  0  0  0  0  0  0  0
    2.9091    1.7299    0.8029 C   0  0  0  0  0  0  0  0  0  0  0  0
    3.5888    0.6049    0.2653 C   0  0  0  0  0  0  0  0  0  0  0  0
    2.8863   -0.4333   -0.2856 C   0  0  0  0  0  0  0  0  0  0  0  0
    3.7636   -1.9619   -0.9369 Br  0  0  0  0  0  0  0  0  0  0  0  0
    1.4698   -0.3621   -0.3678 C   0  0  0  0  0  0  0  0  0  0  0  0
    0.7878   -1.4126   -0.9295 O   0  0  0  0  0  0  0  0  0  0  0  0
    0.7282   -3.4224    0.8123 O   0  0  0  0  0  0  0  0  0  0  0  0
   -1.4147   -2.3628   -1.6254 H   0  0  0  0  0  0  0  0  0  0  0  0
   -4.6244    0.7133   -0.3089 H   0  0  0  0  0  0  0  0  0  0  0  0
   -4.5892    2.8624   -1.4791 H   0  0  0  0  0  0  0  0  0  0  0  0
   -3.3322    4.7254   -2.5263 H   0  0  0  0  0  0  0  0  0  0  0  0
   -0.8344    4.7147   -2.4908 H   0  0  0  0  0  0  0  0  0  0  0  0
    0.3922    2.9035   -1.3708 H   0  0  0  0  0  0  0  0  0  0  0  0
   -0.2548    2.9359    1.3714 H   0  0  0  0  0  0  0  0  0  0  0  0
    1.0396    4.7186    2.4598 H   0  0  0  0  0  0  0  0  0  0  0  0
    3.5363    4.6412    2.4849 H   0  0  0  0  0  0  0  0  0  0  0  0
    4.7217    2.7206    1.4579 H   0  0  0  0  0  0  0  0  0  0  0  0
    4.6770    0.5565    0.3188 H   0  0  0  0  0  0  0  0  0  0  0  0
  1  2  1  0  0  0  0
  1 28  1  0  0  0  0
  2  3  1  0  0  0  0
  2 26  1  0  0  0  0
  2 27  2  0  0  0  0
  3  4  1  0  0  0  0
  4  5  2  0  0  0  0
  4 14  1  0  0  0  0
  5  6  1  0  0  0  0
  5  7  1  0  0  0  0
  7  8  2  0  0  0  0
  7 29  1  0  0  0  0
  8  9  1  0  0  0  0
  8 13  1  0  0  0  0
  9 10  2  0  0  0  0
  9 30  1  0  0  0  0
 10 11  1  0  0  0  0
 10 31  1  0  0  0  0
 11 12  2  0  0  0  0
 11 32  1  0  0  0  0
 12 13  1  0  0  0  0
 12 33  1  0  0  0  0
 13 14  2  0  0  0  0
 14 15  1  0  0  0  0
 15 16  2  0  0  0  0
 15 25  1  0  0  0  0
 16 17  1  0  0  0  0
 16 21  1  0  0  0  0
 17 18  2  0  0  0  0
 17 34  1  0  0  0  0
 18 19  1  0  0  0  0
 18 35  1  0  0  0  0
 19 20  2  0  0  0  0
 19 36  1  0  0  0  0
 20 21  1  0  0  0  0
 20 37  1  0  0  0  0
 21 22  2  0  0  0  0
 22 23  1  0  0  0  0
 22 38  1  0  0  0  0
 23 24  1  0  0  0  0
 23 25  2  0  0  0  0
 25 26  1  0  0  0  0
M  END
$$$$
