Title Card Required
 OpenBabel03192317413D

 47 50  0  0  1  0  0  0  0  0999 V2000
   -2.1365   -0.8953   -2.0923 C   0  0  0  0  0  0  0  0  0  0  0  0
   -3.1734   -0.2781   -1.1209 C   0  0  2  0  0  0  0  0  0  0  0  0
   -2.3999   -0.0028    0.0915 N   0  0  0  0  0  0  0  0  0  0  0  0
   -1.2100   -0.3203   -0.1521 C   0  0  0  0  0  0  0  0  0  0  0  0
   -0.9057   -0.8098   -1.3749 O   0  0  0  0  0  0  0  0  0  0  0  0
   -0.0556   -0.2352    0.7944 C   0  0  0  0  0  0  0  0  0  0  0  0
    1.1318    0.4089    0.1553 C   0  0  0  0  0  0  0  0  0  0  0  0
    2.2971   -0.0573    0.1090 N   0  0  0  0  0  0  0  0  0  0  0  0
    3.1260    0.9183   -0.6048 C   0  0  1  0  0  0  0  0  0  0  0  0
    2.1430    2.0754   -0.9185 C   0  0  0  0  0  0  0  0  0  0  0  0
    0.8921    1.6111   -0.4111 O   0  0  0  0  0  0  0  0  0  0  0  0
    4.3341    1.3738    0.2199 C   0  0  0  0  0  0  0  0  0  0  0  0
   -4.3625   -1.2049   -0.8443 C   0  0  0  0  0  0  0  0  0  0  0  0
    5.4567    0.3673    0.3338 C   0  0  0  0  0  0  0  0  0  0  0  0
   -5.4546   -0.5609   -0.0270 C   0  0  0  0  0  0  0  0  0  0  0  0
    6.7743    0.7612    0.0754 C   0  0  0  0  0  0  0  0  0  0  0  0
    7.8306   -0.1425    0.1843 C   0  0  0  0  0  0  0  0  0  0  0  0
    7.5814   -1.4632    0.5512 C   0  0  0  0  0  0  0  0  0  0  0  0
    6.2716   -1.8687    0.8071 C   0  0  0  0  0  0  0  0  0  0  0  0
    5.2168   -0.9640    0.7015 C   0  0  0  0  0  0  0  0  0  0  0  0
   -6.6563   -0.1732   -0.6279 C   0  0  0  0  0  0  0  0  0  0  0  0
   -7.6637    0.4426    0.1148 C   0  0  0  0  0  0  0  0  0  0  0  0
   -7.4798    0.6798    1.4749 C   0  0  0  0  0  0  0  0  0  0  0  0
   -6.2835    0.2997    2.0845 C   0  0  0  0  0  0  0  0  0  0  0  0
   -5.2788   -0.3141    1.3403 C   0  0  0  0  0  0  0  0  0  0  0  0
   -2.3446   -1.9548   -2.3092 H   0  0  0  0  0  0  0  0  0  0  0  0
   -2.0368   -0.3489   -3.0389 H   0  0  0  0  0  0  0  0  0  0  0  0
   -3.5642    0.6783   -1.5052 H   0  0  0  0  0  0  0  0  0  0  0  0
   -0.3813    0.3457    1.6664 H   0  0  0  0  0  0  0  0  0  0  0  0
    0.2451   -1.2415    1.1125 H   0  0  0  0  0  0  0  0  0  0  0  0
    3.4953    0.4472   -1.5302 H   0  0  0  0  0  0  0  0  0  0  0  0
    2.4101    3.0074   -0.3969 H   0  0  0  0  0  0  0  0  0  0  0  0
    2.0360    2.2824   -1.9911 H   0  0  0  0  0  0  0  0  0  0  0  0
    4.7345    2.2924   -0.2376 H   0  0  0  0  0  0  0  0  0  0  0  0
    3.9671    1.6552    1.2222 H   0  0  0  0  0  0  0  0  0  0  0  0
   -4.7772   -1.5328   -1.8107 H   0  0  0  0  0  0  0  0  0  0  0  0
   -3.9769   -2.1032   -0.3349 H   0  0  0  0  0  0  0  0  0  0  0  0
    6.9768    1.7951   -0.2155 H   0  0  0  0  0  0  0  0  0  0  0  0
    8.8504    0.1870   -0.0217 H   0  0  0  0  0  0  0  0  0  0  0  0
    8.4038   -2.1752    0.6361 H   0  0  0  0  0  0  0  0  0  0  0  0
    6.0675   -2.9022    1.0926 H   0  0  0  0  0  0  0  0  0  0  0  0
    4.1921   -1.2828    0.8947 H   0  0  0  0  0  0  0  0  0  0  0  0
   -6.8090   -0.3620   -1.6935 H   0  0  0  0  0  0  0  0  0  0  0  0
   -8.5958    0.7339   -0.3722 H   0  0  0  0  0  0  0  0  0  0  0  0
   -8.2665    1.1592    2.0596 H   0  0  0  0  0  0  0  0  0  0  0  0
   -6.1313    0.4838    3.1493 H   0  0  0  0  0  0  0  0  0  0  0  0
   -4.3356   -0.5933    1.8118 H   0  0  0  0  0  0  0  0  0  0  0  0
  1  2  1  0  0  0  0
  1  5  1  0  0  0  0
  1 26  1  0  0  0  0
  1 27  1  0  0  0  0
  2  3  1  0  0  0  0
  2 13  1  0  0  0  0
  2 28  1  6  0  0  0
  3  4  2  0  0  0  0
  4  5  1  0  0  0  0
  4  6  1  0  0  0  0
  6  7  1  0  0  0  0
  6 29  1  0  0  0  0
  6 30  1  0  0  0  0
  7  8  2  0  0  0  0
  7 11  1  0  0  0  0
  8  9  1  0  0  0  0
  9 10  1  0  0  0  0
  9 12  1  0  0  0  0
  9 31  1  6  0  0  0
 10 11  1  0  0  0  0
 10 32  1  0  0  0  0
 10 33  1  0  0  0  0
 12 14  1  0  0  0  0
 12 34  1  0  0  0  0
 12 35  1  0  0  0  0
 13 15  1  0  0  0  0
 13 36  1  0  0  0  0
 13 37  1  0  0  0  0
 14 16  2  0  0  0  0
 14 20  1  0  0  0  0
 15 21  2  0  0  0  0
 15 25  1  0  0  0  0
 16 17  1  0  0  0  0
 16 38  1  0  0  0  0
 17 18  2  0  0  0  0
 17 39  1  0  0  0  0
 18 19  1  0  0  0  0
 18 40  1  0  0  0  0
 19 20  2  0  0  0  0
 19 41  1  0  0  0  0
 20 42  1  0  0  0  0
 21 22  1  0  0  0  0
 21 43  1  0  0  0  0
 22 23  2  0  0  0  0
 22 44  1  0  0  0  0
 23 24  1  0  0  0  0
 23 45  1  0  0  0  0
 24 25  2  0  0  0  0
 24 46  1  0  0  0  0
 25 47  1  0  0  0  0
M  END
$$$$
