Title Card Required
 OpenBabel03192317553D

 38 41  0  0  1  0  0  0  0  0999 V2000
    0.8047   -0.9315    1.1433 O   0  0  0  0  0  0  0  0  0  0  0  0
    0.8478    0.3856    0.8621 C   0  0  0  0  0  0  0  0  0  0  0  0
    1.9530    0.9982    0.9890 N   0  0  0  0  0  0  0  0  0  0  0  0
    2.9490   -0.0069    1.3758 C   0  0  1  0  0  0  0  0  0  0  0  0
    2.0863   -1.2618    1.6789 C   0  0  0  0  0  0  0  0  0  0  0  0
    3.9577   -0.2171    0.2640 C   0  0  0  0  0  0  0  0  0  0  0  0
    5.3193    0.0022    0.4726 C   0  0  0  0  0  0  0  0  0  0  0  0
    6.2378   -0.2060   -0.5576 C   0  0  0  0  0  0  0  0  0  0  0  0
    5.7983   -0.6355   -1.8073 C   0  0  0  0  0  0  0  0  0  0  0  0
    4.4367   -0.8577   -2.0241 C   0  0  0  0  0  0  0  0  0  0  0  0
    3.5237   -0.6489   -0.9948 C   0  0  0  0  0  0  0  0  0  0  0  0
   -2.6375    0.7893   -0.0922 C   0  0  0  0  0  0  0  0  0  0  0  0
   -2.7472    2.1446   -0.4281 C   0  0  0  0  0  0  0  0  0  0  0  0
   -1.6144    2.9468   -0.3325 C   0  0  0  0  0  0  0  0  0  0  0  0
   -0.4166    2.3799    0.0902 C   0  0  0  0  0  0  0  0  0  0  0  0
   -0.4162    1.0170    0.4062 C   0  0  0  0  0  0  0  0  0  0  0  0
   -1.4926    0.2450    0.3181 N   0  0  0  0  0  0  0  0  0  0  0  0
   -3.8225   -0.1135   -0.1837 C   0  0  0  0  0  0  0  0  0  0  0  0
   -3.6992   -1.4683    0.1494 C   0  0  0  0  0  0  0  0  0  0  0  0
   -4.8245   -2.2784    0.0491 C   0  0  0  0  0  0  0  0  0  0  0  0
   -6.0256   -1.7144   -0.3760 C   0  0  0  0  0  0  0  0  0  0  0  0
   -6.0418   -0.3535   -0.6835 C   0  0  0  0  0  0  0  0  0  0  0  0
   -4.9720    0.4283   -0.5917 N   0  0  0  0  0  0  0  0  0  0  0  0
    3.4855    0.3345    2.2727 H   0  0  0  0  0  0  0  0  0  0  0  0
    2.4545   -2.1728    1.1899 H   0  0  0  0  0  0  0  0  0  0  0  0
    1.9775   -1.4444    2.7583 H   0  0  0  0  0  0  0  0  0  0  0  0
    5.6654    0.3429    1.4512 H   0  0  0  0  0  0  0  0  0  0  0  0
    7.3001   -0.0292   -0.3819 H   0  0  0  0  0  0  0  0  0  0  0  0
    6.5151   -0.7968   -2.6139 H   0  0  0  0  0  0  0  0  0  0  0  0
    4.0862   -1.1936   -3.0013 H   0  0  0  0  0  0  0  0  0  0  0  0
    2.4575   -0.8227   -1.1672 H   0  0  0  0  0  0  0  0  0  0  0  0
   -3.7134    2.5264   -0.7546 H   0  0  0  0  0  0  0  0  0  0  0  0
   -1.6643    4.0064   -0.5878 H   0  0  0  0  0  0  0  0  0  0  0  0
    0.5094    2.9466    0.1830 H   0  0  0  0  0  0  0  0  0  0  0  0
   -2.7295   -1.8425    0.4753 H   0  0  0  0  0  0  0  0  0  0  0  0
   -4.7658   -3.3389    0.3001 H   0  0  0  0  0  0  0  0  0  0  0  0
   -6.9339   -2.3103   -0.4679 H   0  0  0  0  0  0  0  0  0  0  0  0
   -6.9668    0.1245   -1.0206 H   0  0  0  0  0  0  0  0  0  0  0  0
  1  2  1  0  0  0  0
  1  5  1  0  0  0  0
  2  3  2  0  0  0  0
  2 16  1  0  0  0  0
  3  4  1  0  0  0  0
  4  5  1  0  0  0  0
  4  6  1  0  0  0  0
  4 24  1  1  0  0  0
  5 25  1  0  0  0  0
  5 26  1  0  0  0  0
  6  7  2  0  0  0  0
  6 11  1  0  0  0  0
  7  8  1  0  0  0  0
  7 27  1  0  0  0  0
  8  9  2  0  0  0  0
  8 28  1  0  0  0  0
  9 10  1  0  0  0  0
  9 29  1  0  0  0  0
 10 11  2  0  0  0  0
 10 30  1  0  0  0  0
 11 31  1  0  0  0  0
 12 13  2  0  0  0  0
 12 17  1  0  0  0  0
 12 18  1  0  0  0  0
 13 14  1  0  0  0  0
 13 32  1  0  0  0  0
 14 15  2  0  0  0  0
 14 33  1  0  0  0  0
 15 16  1  0  0  0  0
 15 34  1  0  0  0  0
 16 17  2  0  0  0  0
 18 19  2  0  0  0  0
 18 23  1  0  0  0  0
 19 20  1  0  0  0  0
 19 35  1  0  0  0  0
 20 21  2  0  0  0  0
 20 36  1  0  0  0  0
 21 22  1  0  0  0  0
 21 37  1  0  0  0  0
 22 23  2  0  0  0  0
 22 38  1  0  0  0  0
M  END
$$$$
