Title Card Required
 OpenBabel03192317453D

 90 96  0  0  1  0  0  0  0  0999 V2000
    0.1300    1.9743    0.2612 C   0  0  2  0  0  0  0  0  0  0  0  0
   -0.7733    3.1475   -0.1689 C   0  0  2  0  0  0  0  0  0  0  0  0
   -0.1663    4.5006    0.2173 C   0  0  0  0  0  0  0  0  0  0  0  0
    0.2038    4.5719    1.7014 C   0  0  0  0  0  0  0  0  0  0  0  0
    1.1148    3.4104    2.1019 C   0  0  0  0  0  0  0  0  0  0  0  0
    0.4819    2.0647    1.7524 C   0  0  0  0  0  0  0  0  0  0  0  0
    2.1327    0.8663   -0.6052 C   0  0  0  0  0  0  0  0  0  0  0  0
    3.3569    0.9866   -1.4695 C   0  0  0  0  0  0  0  0  0  0  0  0
    4.5795    0.4428   -1.0248 C   0  0  0  0  0  0  0  0  0  0  0  0
    5.6901    0.5511   -1.8708 C   0  0  0  0  0  0  0  0  0  0  0  0
    5.5915    1.1560   -3.1239 C   0  0  0  0  0  0  0  0  0  0  0  0
    4.3758    1.6773   -3.5580 C   0  0  0  0  0  0  0  0  0  0  0  0
    3.2628    1.5942   -2.7254 C   0  0  0  0  0  0  0  0  0  0  0  0
    1.8949   -0.1445    0.0271 O   0  0  0  0  0  0  0  0  0  0  0  0
    1.3210    1.9582   -0.5756 N   0  0  0  0  0  0  0  0  0  0  0  0
    4.7021   -0.2831    0.6886 P   0  0  0  0  0  0  0  0  0  0  0  0
    4.2970   -2.0553    0.3964 C   0  0  0  0  0  0  0  0  0  0  0  0
    3.7706   -2.5480   -0.8006 C   0  0  0  0  0  0  0  0  0  0  0  0
    3.4668   -3.9031   -0.9318 C   0  0  0  0  0  0  0  0  0  0  0  0
    3.6839   -4.7798    0.1295 C   0  0  0  0  0  0  0  0  0  0  0  0
    4.1988   -4.2938    1.3315 C   0  0  0  0  0  0  0  0  0  0  0  0
    4.4948   -2.9395    1.4654 C   0  0  0  0  0  0  0  0  0  0  0  0
    6.5442   -0.3846    0.8561 C   0  0  0  0  0  0  0  0  0  0  0  0
    7.1816    0.7249    1.4271 C   0  0  0  0  0  0  0  0  0  0  0  0
    8.5668    0.7549    1.5799 C   0  0  0  0  0  0  0  0  0  0  0  0
    9.3347   -0.3374    1.1779 C   0  0  0  0  0  0  0  0  0  0  0  0
    8.7108   -1.4537    0.6211 C   0  0  0  0  0  0  0  0  0  0  0  0
    7.3256   -1.4779    0.4585 C   0  0  0  0  0  0  0  0  0  0  0  0
   -2.9941    2.1270   -0.0995 C   0  0  0  0  0  0  0  0  0  0  0  0
   -4.2801    1.9896    0.6650 C   0  0  0  0  0  0  0  0  0  0  0  0
   -4.8896    0.7228    0.7823 C   0  0  0  0  0  0  0  0  0  0  0  0
   -6.0880    0.6390    1.5029 C   0  0  0  0  0  0  0  0  0  0  0  0
   -6.6775    1.7707    2.0663 C   0  0  0  0  0  0  0  0  0  0  0  0
   -6.0760    3.0187    1.9282 C   0  0  0  0  0  0  0  0  0  0  0  0
   -4.8754    3.1215    1.2312 C   0  0  0  0  0  0  0  0  0  0  0  0
   -2.7711    1.4892   -1.1092 O   0  0  0  0  0  0  0  0  0  0  0  0
   -2.0935    3.0118    0.4192 N   0  0  0  0  0  0  0  0  0  0  0  0
   -4.0412   -0.7833    0.0835 P   0  0  0  0  0  0  0  0  0  0  0  0
   -5.0568   -2.1146    0.8730 C   0  0  0  0  0  0  0  0  0  0  0  0
   -6.2105   -2.6785    0.3128 C   0  0  0  0  0  0  0  0  0  0  0  0
   -6.9058   -3.6820    0.9881 C   0  0  0  0  0  0  0  0  0  0  0  0
   -6.4606   -4.1323    2.2308 C   0  0  0  0  0  0  0  0  0  0  0  0
   -5.3107   -3.5808    2.7952 C   0  0  0  0  0  0  0  0  0  0  0  0
   -4.6104   -2.5863    2.1149 C   0  0  0  0  0  0  0  0  0  0  0  0
   -4.7049   -0.8340   -1.6335 C   0  0  0  0  0  0  0  0  0  0  0  0
   -5.5673    0.1242   -2.1740 C   0  0  0  0  0  0  0  0  0  0  0  0
   -6.0213    0.0032   -3.4875 C   0  0  0  0  0  0  0  0  0  0  0  0
   -5.6213   -1.0752   -4.2745 C   0  0  0  0  0  0  0  0  0  0  0  0
   -4.7542   -2.0313   -3.7452 C   0  0  0  0  0  0  0  0  0  0  0  0
   -4.2934   -1.9056   -2.4367 C   0  0  0  0  0  0  0  0  0  0  0  0
   -0.4078    1.0346    0.0662 H   0  0  0  0  0  0  0  0  0  0  0  0
   -0.9126    3.0827   -1.2580 H   0  0  0  0  0  0  0  0  0  0  0  0
    0.7426    4.6725   -0.3837 H   0  0  0  0  0  0  0  0  0  0  0  0
   -0.8700    5.3002   -0.0586 H   0  0  0  0  0  0  0  0  0  0  0  0
    0.6819    5.5386    1.9182 H   0  0  0  0  0  0  0  0  0  0  0  0
   -0.7111    4.5459    2.3209 H   0  0  0  0  0  0  0  0  0  0  0  0
    2.0797    3.5049    1.5744 H   0  0  0  0  0  0  0  0  0  0  0  0
    1.3451    3.4562    3.1762 H   0  0  0  0  0  0  0  0  0  0  0  0
   -0.4438    1.9207    2.3351 H   0  0  0  0  0  0  0  0  0  0  0  0
    1.1479    1.2281    2.0037 H   0  0  0  0  0  0  0  0  0  0  0  0
    6.6539    0.1551   -1.5486 H   0  0  0  0  0  0  0  0  0  0  0  0
    6.4733    1.2123   -3.7642 H   0  0  0  0  0  0  0  0  0  0  0  0
    4.2899    2.1397   -4.5424 H   0  0  0  0  0  0  0  0  0  0  0  0
    2.2974    1.9773   -3.0633 H   0  0  0  0  0  0  0  0  0  0  0  0
    1.6562    2.8162   -0.9942 H   0  0  0  0  0  0  0  0  0  0  0  0
    3.5848   -1.8680   -1.6336 H   0  0  0  0  0  0  0  0  0  0  0  0
    3.0550   -4.2743   -1.8718 H   0  0  0  0  0  0  0  0  0  0  0  0
    3.4460   -5.8394    0.0233 H   0  0  0  0  0  0  0  0  0  0  0  0
    4.3636   -4.9712    2.1711 H   0  0  0  0  0  0  0  0  0  0  0  0
    4.8925   -2.5641    2.4126 H   0  0  0  0  0  0  0  0  0  0  0  0
    6.5797    1.5760    1.7570 H   0  0  0  0  0  0  0  0  0  0  0  0
    9.0463    1.6285    2.0246 H   0  0  0  0  0  0  0  0  0  0  0  0
   10.4184   -0.3219    1.3044 H   0  0  0  0  0  0  0  0  0  0  0  0
    9.3068   -2.3132    0.3090 H   0  0  0  0  0  0  0  0  0  0  0  0
    6.8479   -2.3542    0.0150 H   0  0  0  0  0  0  0  0  0  0  0  0
   -6.5752   -0.3289    1.6279 H   0  0  0  0  0  0  0  0  0  0  0  0
   -7.6173    1.6722    2.6120 H   0  0  0  0  0  0  0  0  0  0  0  0
   -6.5398    3.9085    2.3562 H   0  0  0  0  0  0  0  0  0  0  0  0
   -4.4029    4.0973    1.0998 H   0  0  0  0  0  0  0  0  0  0  0  0
   -2.2536    3.3656    1.3539 H   0  0  0  0  0  0  0  0  0  0  0  0
   -6.5696   -2.3296   -0.6580 H   0  0  0  0  0  0  0  0  0  0  0  0
   -7.8020   -4.1144    0.5397 H   0  0  0  0  0  0  0  0  0  0  0  0
   -7.0054   -4.9188    2.7558 H   0  0  0  0  0  0  0  0  0  0  0  0
   -4.9503   -3.9353    3.7625 H   0  0  0  0  0  0  0  0  0  0  0  0
   -3.6978   -2.1693    2.5494 H   0  0  0  0  0  0  0  0  0  0  0  0
   -5.8855    0.9757   -1.5695 H   0  0  0  0  0  0  0  0  0  0  0  0
   -6.6944    0.7584   -3.8971 H   0  0  0  0  0  0  0  0  0  0  0  0
   -5.9805   -1.1682   -5.3006 H   0  0  0  0  0  0  0  0  0  0  0  0
   -4.4292   -2.8749   -4.3564 H   0  0  0  0  0  0  0  0  0  0  0  0
   -3.6055   -2.6522   -2.0305 H   0  0  0  0  0  0  0  0  0  0  0  0
  1  2  1  0  0  0  0
  1  6  1  0  0  0  0
  1 15  1  0  0  0  0
  1 51  1  6  0  0  0
  2  3  1  0  0  0  0
  2 37  1  0  0  0  0
  2 52  1  6  0  0  0
  3  4  1  0  0  0  0
  3 53  1  0  0  0  0
  3 54  1  0  0  0  0
  4  5  1  0  0  0  0
  4 55  1  0  0  0  0
  4 56  1  0  0  0  0
  5  6  1  0  0  0  0
  5 57  1  0  0  0  0
  5 58  1  0  0  0  0
  6 59  1  0  0  0  0
  6 60  1  0  0  0  0
  7  8  1  0  0  0  0
  7 14  2  0  0  0  0
  7 15  1  0  0  0  0
  8  9  2  0  0  0  0
  8 13  1  0  0  0  0
  9 10  1  0  0  0  0
  9 16  1  0  0  0  0
 10 11  2  0  0  0  0
 10 61  1  0  0  0  0
 11 12  1  0  0  0  0
 11 62  1  0  0  0  0
 12 13  2  0  0  0  0
 12 63  1  0  0  0  0
 13 64  1  0  0  0  0
 15 65  1  0  0  0  0
 16 17  1  0  0  0  0
 16 23  1  0  0  0  0
 17 18  2  0  0  0  0
 17 22  1  0  0  0  0
 18 19  1  0  0  0  0
 18 66  1  0  0  0  0
 19 20  2  0  0  0  0
 19 67  1  0  0  0  0
 20 21  1  0  0  0  0
 20 68  1  0  0  0  0
 21 22  2  0  0  0  0
 21 69  1  0  0  0  0
 22 70  1  0  0  0  0
 23 24  2  0  0  0  0
 23 28  1  0  0  0  0
 24 25  1  0  0  0  0
 24 71  1  0  0  0  0
 25 26  2  0  0  0  0
 25 72  1  0  0  0  0
 26 27  1  0  0  0  0
 26 73  1  0  0  0  0
 27 28  2  0  0  0  0
 27 74  1  0  0  0  0
 28 75  1  0  0  0  0
 29 30  1  0  0  0  0
 29 36  2  0  0  0  0
 29 37  1  0  0  0  0
 30 31  2  0  0  0  0
 30 35  1  0  0  0  0
 31 32  1  0  0  0  0
 31 38  1  0  0  0  0
 32 33  2  0  0  0  0
 32 76  1  0  0  0  0
 33 34  1  0  0  0  0
 33 77  1  0  0  0  0
 34 35  2  0  0  0  0
 34 78  1  0  0  0  0
 35 79  1  0  0  0  0
 37 80  1  0  0  0  0
 38 39  1  0  0  0  0
 38 45  1  0  0  0  0
 39 40  2  0  0  0  0
 39 44  1  0  0  0  0
 40 41  1  0  0  0  0
 40 81  1  0  0  0  0
 41 42  2  0  0  0  0
 41 82  1  0  0  0  0
 42 43  1  0  0  0  0
 42 83  1  0  0  0  0
 43 44  2  0  0  0  0
 43 84  1  0  0  0  0
 44 85  1  0  0  0  0
 45 46  2  0  0  0  0
 45 50  1  0  0  0  0
 46 47  1  0  0  0  0
 46 86  1  0  0  0  0
 47 48  2  0  0  0  0
 47 87  1  0  0  0  0
 48 49  1  0  0  0  0
 48 88  1  0  0  0  0
 49 50  2  0  0  0  0
 49 89  1  0  0  0  0
 50 90  1  0  0  0  0
M  END
$$$$
