Title Card Required
 OpenBabel03192317573D

 34 36  0  0  1  0  0  0  0  0999 V2000
    1.2950   -1.8186   -0.6385 O   0  0  0  0  0  0  0  0  0  0  0  0
    0.6276   -0.7099   -0.2638 C   0  0  0  0  0  0  0  0  0  0  0  0
    1.2861    0.3705   -0.1454 N   0  0  0  0  0  0  0  0  0  0  0  0
    2.6774    0.0691   -0.4805 C   0  0  2  0  0  0  0  0  0  0  0  0
    2.6759   -1.4654   -0.6771 C   0  0  0  0  0  0  0  0  0  0  0  0
   -0.8322   -0.9019   -0.0166 C   0  0  0  0  0  0  0  0  0  0  0  0
   -1.1789   -2.1345    0.2659 N   0  0  0  0  0  0  0  0  0  0  0  0
   -2.4721   -2.4169    0.5274 C   0  0  0  0  0  0  0  0  0  0  0  0
   -3.4645   -1.4697    0.5063 C   0  0  0  0  0  0  0  0  0  0  0  0
   -3.1319   -0.1284    0.1911 C   0  0  0  0  0  0  0  0  0  0  0  0
   -4.1164    0.8955    0.1349 C   0  0  0  0  0  0  0  0  0  0  0  0
   -3.7615    2.1809   -0.1853 C   0  0  0  0  0  0  0  0  0  0  0  0
   -2.4086    2.4966   -0.4629 C   0  0  0  0  0  0  0  0  0  0  0  0
   -1.4327    1.5306   -0.4135 C   0  0  0  0  0  0  0  0  0  0  0  0
   -1.7692    0.1874   -0.0821 C   0  0  0  0  0  0  0  0  0  0  0  0
    3.6569    0.5576    0.5901 C   0  0  0  0  0  0  0  0  0  0  0  0
    5.0921    0.2297    0.1834 C   0  0  0  0  0  0  0  0  0  0  0  0
    3.4824    2.0498    0.8518 C   0  0  0  0  0  0  0  0  0  0  0  0
    2.9229    0.5944   -1.4226 H   0  0  0  0  0  0  0  0  0  0  0  0
    3.1006   -1.7999   -1.6320 H   0  0  0  0  0  0  0  0  0  0  0  0
    3.1920   -1.9860    0.1465 H   0  0  0  0  0  0  0  0  0  0  0  0
   -2.6958   -3.4609    0.7616 H   0  0  0  0  0  0  0  0  0  0  0  0
   -4.5000   -1.7375    0.7233 H   0  0  0  0  0  0  0  0  0  0  0  0
   -5.1554    0.6366    0.3476 H   0  0  0  0  0  0  0  0  0  0  0  0
   -4.5199    2.9642   -0.2311 H   0  0  0  0  0  0  0  0  0  0  0  0
   -2.1385    3.5222   -0.7189 H   0  0  0  0  0  0  0  0  0  0  0  0
   -0.3919    1.7758   -0.6111 H   0  0  0  0  0  0  0  0  0  0  0  0
    3.4129    0.0070    1.5164 H   0  0  0  0  0  0  0  0  0  0  0  0
    5.3553    0.7557   -0.7485 H   0  0  0  0  0  0  0  0  0  0  0  0
    5.8015    0.5501    0.9596 H   0  0  0  0  0  0  0  0  0  0  0  0
    5.2432   -0.8478    0.0183 H   0  0  0  0  0  0  0  0  0  0  0  0
    2.4511    2.2740    1.1517 H   0  0  0  0  0  0  0  0  0  0  0  0
    4.1664    2.3902    1.6427 H   0  0  0  0  0  0  0  0  0  0  0  0
    3.7064    2.6281   -0.0593 H   0  0  0  0  0  0  0  0  0  0  0  0
  1  2  1  0  0  0  0
  1  5  1  0  0  0  0
  2  3  2  0  0  0  0
  2  6  1  0  0  0  0
  3  4  1  0  0  0  0
  4  5  1  0  0  0  0
  4 16  1  0  0  0  0
  4 19  1  6  0  0  0
  5 20  1  0  0  0  0
  5 21  1  0  0  0  0
  6  7  2  0  0  0  0
  6 15  1  0  0  0  0
  7  8  1  0  0  0  0
  8  9  2  0  0  0  0
  8 22  1  0  0  0  0
  9 10  1  0  0  0  0
  9 23  1  0  0  0  0
 10 11  2  0  0  0  0
 10 15  1  0  0  0  0
 11 12  1  0  0  0  0
 11 24  1  0  0  0  0
 12 13  2  0  0  0  0
 12 25  1  0  0  0  0
 13 14  1  0  0  0  0
 13 26  1  0  0  0  0
 14 15  2  0  0  0  0
 14 27  1  0  0  0  0
 16 17  1  0  0  0  0
 16 18  1  0  0  0  0
 16 28  1  0  0  0  0
 17 29  1  0  0  0  0
 17 30  1  0  0  0  0
 17 31  1  0  0  0  0
 18 32  1  0  0  0  0
 18 33  1  0  0  0  0
 18 34  1  0  0  0  0
M  END
$$$$
