Title Card Required
 OpenBabel03192317553D

 55 61  0  0  0  0  0  0  0  0999 V2000
    2.4890   -0.2134    0.0691 N   0  0  0  0  0  0  0  0  0  0  0  0
    2.1572    0.8593    1.0119 C   0  0  0  0  0  0  0  0  0  0  0  0
    2.9279    0.6402    2.3072 C   0  0  0  0  0  0  0  0  0  0  0  0
    4.4267    0.7243    2.0302 C   0  0  0  0  0  0  0  0  0  0  0  0
    4.8288    0.0462    0.7367 C   0  0  0  0  0  0  0  0  0  0  0  0
    6.1816   -0.1425    0.4390 C   0  0  0  0  0  0  0  0  0  0  0  0
    6.5976   -0.7427   -0.7453 C   0  0  0  0  0  0  0  0  0  0  0  0
    5.6412   -1.1477   -1.6754 C   0  0  0  0  0  0  0  0  0  0  0  0
    4.2904   -0.9503   -1.4139 C   0  0  0  0  0  0  0  0  0  0  0  0
    3.8696   -0.3788   -0.2027 C   0  0  0  0  0  0  0  0  0  0  0  0
    0.4311   -0.6432   -1.5796 O   0  0  0  0  0  0  0  0  0  0  0  0
    1.4147   -1.4187   -0.4624 P   0  0  0  0  0  0  0  0  0  0  0  0
    0.3718   -1.2941    0.8545 O   0  0  0  0  0  0  0  0  0  0  0  0
   -0.9483   -1.6330    0.7027 C   0  0  0  0  0  0  0  0  0  0  0  0
   -1.8142   -0.7631    0.0639 C   0  0  0  0  0  0  0  0  0  0  0  0
   -1.2886    0.5390   -0.4297 C   0  0  0  0  0  0  0  0  0  0  0  0
   -0.1842    0.5374   -1.2633 C   0  0  0  0  0  0  0  0  0  0  0  0
   -1.3824   -2.8716    1.2330 C   0  0  0  0  0  0  0  0  0  0  0  0
   -2.6945   -3.2430    1.1057 C   0  0  0  0  0  0  0  0  0  0  0  0
   -3.6175   -2.4164    0.4089 C   0  0  0  0  0  0  0  0  0  0  0  0
   -4.9683   -2.8175    0.2222 C   0  0  0  0  0  0  0  0  0  0  0  0
   -5.8427   -2.0391   -0.4942 C   0  0  0  0  0  0  0  0  0  0  0  0
   -5.3954   -0.8239   -1.0673 C   0  0  0  0  0  0  0  0  0  0  0  0
   -4.0991   -0.4030   -0.8942 C   0  0  0  0  0  0  0  0  0  0  0  0
   -3.1738   -1.1747   -0.1359 C   0  0  0  0  0  0  0  0  0  0  0  0
    0.3581    1.7307   -1.7984 C   0  0  0  0  0  0  0  0  0  0  0  0
   -0.2031    2.9366   -1.4731 C   0  0  0  0  0  0  0  0  0  0  0  0
   -1.3024    3.0059   -0.5738 C   0  0  0  0  0  0  0  0  0  0  0  0
   -1.8569    4.2565   -0.1875 C   0  0  0  0  0  0  0  0  0  0  0  0
   -2.8875    4.3222    0.7165 C   0  0  0  0  0  0  0  0  0  0  0  0
   -3.4022    3.1312    1.2837 C   0  0  0  0  0  0  0  0  0  0  0  0
   -2.8958    1.9063    0.9218 C   0  0  0  0  0  0  0  0  0  0  0  0
   -1.8435    1.8016   -0.0319 C   0  0  0  0  0  0  0  0  0  0  0  0
    1.0765    0.8611    1.1853 H   0  0  0  0  0  0  0  0  0  0  0  0
    2.4299    1.8273    0.5560 H   0  0  0  0  0  0  0  0  0  0  0  0
    2.6334    1.3836    3.0616 H   0  0  0  0  0  0  0  0  0  0  0  0
    2.6538   -0.3529    2.6955 H   0  0  0  0  0  0  0  0  0  0  0  0
    4.7246    1.7849    1.9676 H   0  0  0  0  0  0  0  0  0  0  0  0
    5.0040    0.2942    2.8625 H   0  0  0  0  0  0  0  0  0  0  0  0
    6.9240    0.1896    1.1695 H   0  0  0  0  0  0  0  0  0  0  0  0
    7.6602   -0.8828   -0.9467 H   0  0  0  0  0  0  0  0  0  0  0  0
    5.9460   -1.6007   -2.6199 H   0  0  0  0  0  0  0  0  0  0  0  0
    3.5447   -1.2230   -2.1630 H   0  0  0  0  0  0  0  0  0  0  0  0
   -0.6492   -3.4972    1.7424 H   0  0  0  0  0  0  0  0  0  0  0  0
   -3.0445   -4.1906    1.5199 H   0  0  0  0  0  0  0  0  0  0  0  0
   -5.2940   -3.7667    0.6532 H   0  0  0  0  0  0  0  0  0  0  0  0
   -6.8760   -2.3590   -0.6349 H   0  0  0  0  0  0  0  0  0  0  0  0
   -6.0844   -0.2190   -1.6587 H   0  0  0  0  0  0  0  0  0  0  0  0
   -3.7635    0.5286   -1.3504 H   0  0  0  0  0  0  0  0  0  0  0  0
    1.2183    1.6507   -2.4638 H   0  0  0  0  0  0  0  0  0  0  0  0
    0.1996    3.8640   -1.8855 H   0  0  0  0  0  0  0  0  0  0  0  0
   -1.4379    5.1672   -0.6206 H   0  0  0  0  0  0  0  0  0  0  0  0
   -3.3031    5.2875    1.0087 H   0  0  0  0  0  0  0  0  0  0  0  0
   -4.2057    3.1876    2.0196 H   0  0  0  0  0  0  0  0  0  0  0  0
   -3.2947    0.9977    1.3731 H   0  0  0  0  0  0  0  0  0  0  0  0
  1  2  1  0  0  0  0
  1 10  1  0  0  0  0
  1 12  1  0  0  0  0
  2  3  1  0  0  0  0
  2 34  1  0  0  0  0
  2 35  1  0  0  0  0
  3  4  1  0  0  0  0
  3 36  1  0  0  0  0
  3 37  1  0  0  0  0
  4  5  1  0  0  0  0
  4 38  1  0  0  0  0
  4 39  1  0  0  0  0
  5  6  2  0  0  0  0
  5 10  1  0  0  0  0
  6  7  1  0  0  0  0
  6 40  1  0  0  0  0
  7  8  2  0  0  0  0
  7 41  1  0  0  0  0
  8  9  1  0  0  0  0
  8 42  1  0  0  0  0
  9 10  2  0  0  0  0
  9 43  1  0  0  0  0
 11 12  1  0  0  0  0
 11 17  1  0  0  0  0
 12 13  1  0  0  0  0
 13 14  1  0  0  0  0
 14 15  2  0  0  0  0
 14 18  1  0  0  0  0
 15 16  1  0  0  0  0
 15 25  1  0  0  0  0
 16 17  2  0  0  0  0
 16 33  1  0  0  0  0
 17 26  1  0  0  0  0
 18 19  2  0  0  0  0
 18 44  1  0  0  0  0
 19 20  1  0  0  0  0
 19 45  1  0  0  0  0
 20 21  2  0  0  0  0
 20 25  1  0  0  0  0
 21 22  1  0  0  0  0
 21 46  1  0  0  0  0
 22 23  2  0  0  0  0
 22 47  1  0  0  0  0
 23 24  1  0  0  0  0
 23 48  1  0  0  0  0
 24 25  2  0  0  0  0
 24 49  1  0  0  0  0
 26 27  2  0  0  0  0
 26 50  1  0  0  0  0
 27 28  1  0  0  0  0
 27 51  1  0  0  0  0
 28 29  2  0  0  0  0
 28 33  1  0  0  0  0
 29 30  1  0  0  0  0
 29 52  1  0  0  0  0
 30 31  2  0  0  0  0
 30 53  1  0  0  0  0
 31 32  1  0  0  0  0
 31 54  1  0  0  0  0
 32 33  2  0  0  0  0
 32 55  1  0  0  0  0
M  END
$$$$
