Title Card Required
 OpenBabel03192317523D

 45 47  0  0  1  0  0  0  0  0999 V2000
   -3.9673   -0.6502   -2.1817 C   0  0  0  0  0  0  0  0  0  0  0  0
    3.1220    2.1166   -0.6745 C   0  0  0  0  0  0  0  0  0  0  0  0
    4.1178    1.0987   -1.2457 C   0  0  0  0  0  0  0  0  0  0  0  0
    2.0619    0.1660   -0.8406 C   0  0  0  0  0  0  0  0  0  0  0  0
    1.5255   -1.0163   -0.0713 C   0  0  0  0  0  0  0  0  0  0  0  0
    0.1379   -1.2138    0.0874 C   0  0  0  0  0  0  0  0  0  0  0  0
   -3.6368   -1.2828   -0.8335 C   0  0  0  0  0  0  0  0  0  0  0  0
   -2.7163   -0.4419    0.0615 C   0  0  2  0  0  0  0  0  0  0  0  0
   -3.3052    0.9377    0.4658 C   0  0  0  0  0  0  0  0  0  0  0  0
   -2.3520    2.0598    0.0303 C   0  0  0  0  0  0  0  0  0  0  0  0
   -0.9179    1.5455    0.2213 C   0  0  2  0  0  0  0  0  0  0  0  0
    3.3507   -0.0844   -1.3522 O   0  0  0  0  0  0  0  0  0  0  0  0
    2.2004    1.2892   -0.0062 O   0  0  0  0  0  0  0  0  0  0  0  0
   -1.0486   -0.0653   -0.7434 P   0  0  1  0  0  0  0  0  0  0  0  0
   -0.5050    1.3762    1.6849 C   0  0  0  0  0  0  0  0  0  0  0  0
   -0.5388    2.6811    2.4757 C   0  0  0  0  0  0  0  0  0  0  0  0
    2.4374   -1.9044    0.5000 C   0  0  0  0  0  0  0  0  0  0  0  0
    1.9964   -3.0125    1.2178 C   0  0  0  0  0  0  0  0  0  0  0  0
    0.6295   -3.2391    1.3524 C   0  0  0  0  0  0  0  0  0  0  0  0
   -0.2855   -2.3500    0.7910 C   0  0  0  0  0  0  0  0  0  0  0  0
   -4.4366    0.3382   -2.0594 H   0  0  0  0  0  0  0  0  0  0  0  0
   -4.6669   -1.2793   -2.7497 H   0  0  0  0  0  0  0  0  0  0  0  0
   -3.0600   -0.5157   -2.7875 H   0  0  0  0  0  0  0  0  0  0  0  0
    3.5597    2.8212    0.0426 H   0  0  0  0  0  0  0  0  0  0  0  0
    2.6213    2.6805   -1.4829 H   0  0  0  0  0  0  0  0  0  0  0  0
    4.9635    0.9264   -0.5616 H   0  0  0  0  0  0  0  0  0  0  0  0
    4.5095    1.3951   -2.2300 H   0  0  0  0  0  0  0  0  0  0  0  0
    1.3824    0.4181   -1.6830 H   0  0  0  0  0  0  0  0  0  0  0  0
   -4.5710   -1.4784   -0.2795 H   0  0  0  0  0  0  0  0  0  0  0  0
   -3.1699   -2.2683   -1.0001 H   0  0  0  0  0  0  0  0  0  0  0  0
   -2.5310   -1.0093    0.9839 H   0  0  0  0  0  0  0  0  0  0  0  0
   -4.3066    1.0795    0.0321 H   0  0  0  0  0  0  0  0  0  0  0  0
   -3.4346    0.9687    1.5578 H   0  0  0  0  0  0  0  0  0  0  0  0
   -2.5112    2.2861   -1.0370 H   0  0  0  0  0  0  0  0  0  0  0  0
   -2.5334    2.9933    0.5838 H   0  0  0  0  0  0  0  0  0  0  0  0
   -0.1966    2.2087   -0.2803 H   0  0  0  0  0  0  0  0  0  0  0  0
   -1.1481    0.6242    2.1738 H   0  0  0  0  0  0  0  0  0  0  0  0
    0.5150    0.9677    1.7072 H   0  0  0  0  0  0  0  0  0  0  0  0
   -1.5591    3.0818    2.5714 H   0  0  0  0  0  0  0  0  0  0  0  0
   -0.1448    2.5361    3.4915 H   0  0  0  0  0  0  0  0  0  0  0  0
    0.0784    3.4489    1.9836 H   0  0  0  0  0  0  0  0  0  0  0  0
    3.5014   -1.7226    0.3483 H   0  0  0  0  0  0  0  0  0  0  0  0
    2.7173   -3.7045    1.6555 H   0  0  0  0  0  0  0  0  0  0  0  0
    0.2678   -4.1149    1.8941 H   0  0  0  0  0  0  0  0  0  0  0  0
   -1.3494   -2.5626    0.9007 H   0  0  0  0  0  0  0  0  0  0  0  0
  1  7  1  0  0  0  0
  1 21  1  0  0  0  0
  1 22  1  0  0  0  0
  1 23  1  0  0  0  0
  2  3  1  0  0  0  0
  2 13  1  0  0  0  0
  2 24  1  0  0  0  0
  2 25  1  0  0  0  0
  3 12  1  0  0  0  0
  3 26  1  0  0  0  0
  3 27  1  0  0  0  0
  4  5  1  0  0  0  0
  4 12  1  0  0  0  0
  4 13  1  0  0  0  0
  4 28  1  0  0  0  0
  5  6  2  0  0  0  0
  5 17  1  0  0  0  0
  6 20  1  0  0  0  0
  7  8  1  0  0  0  0
  7 29  1  0  0  0  0
  7 30  1  0  0  0  0
  8  9  1  0  0  0  0
  8 14  1  0  0  0  0
  8 31  1  1  0  0  0
  9 10  1  0  0  0  0
  9 32  1  0  0  0  0
  9 33  1  0  0  0  0
 10 11  1  0  0  0  0
 10 34  1  0  0  0  0
 10 35  1  0  0  0  0
 11 14  1  0  0  0  0
 11 15  1  0  0  0  0
 11 36  1  6  0  0  0
 14  6  1  1  0  0  0
 15 16  1  0  0  0  0
 15 37  1  0  0  0  0
 15 38  1  0  0  0  0
 16 39  1  0  0  0  0
 16 40  1  0  0  0  0
 16 41  1  0  0  0  0
 17 18  2  0  0  0  0
 17 42  1  0  0  0  0
 18 19  1  0  0  0  0
 18 43  1  0  0  0  0
 19 20  2  0  0  0  0
 19 44  1  0  0  0  0
 20 45  1  0  0  0  0
M  END
$$$$
