Title Card Required
 OpenBabel03192317523D

 44 46  0  0  1  0  0  0  0  0999 V2000
   -0.4980    0.6187   -0.8068 C   0  0  2  0  0  0  0  0  0  0  0  0
    0.3379    0.2261    0.4268 C   0  0  2  0  0  0  0  0  0  0  0  0
    0.1595    1.2434    1.5608 C   0  0  0  0  0  0  0  0  0  0  0  0
    0.4917    2.6605    1.0973 C   0  0  0  0  0  0  0  0  0  0  0  0
   -0.3600    3.0584   -0.1095 C   0  0  0  0  0  0  0  0  0  0  0  0
   -0.1979    2.0530   -1.2530 C   0  0  0  0  0  0  0  0  0  0  0  0
   -4.0012   -0.6815   -0.2535 C   0  0  0  0  0  0  0  0  0  0  0  0
   -4.7203   -1.8766   -0.2672 C   0  0  0  0  0  0  0  0  0  0  0  0
   -6.0847   -1.8217    0.0009 C   0  0  0  0  0  0  0  0  0  0  0  0
   -6.6655   -0.5843    0.2706 C   0  0  0  0  0  0  0  0  0  0  0  0
   -5.8533    0.5511    0.2607 C   0  0  0  0  0  0  0  0  0  0  0  0
   -4.5497    0.5054    0.0043 N   0  0  0  0  0  0  0  0  0  0  0  0
   -2.5177   -0.7289   -0.5511 C   0  0  0  0  0  0  0  0  0  0  0  0
   -1.9511   -1.7771   -0.7924 O   0  0  0  0  0  0  0  0  0  0  0  0
   -1.9118    0.4778   -0.5289 N   0  0  0  0  0  0  0  0  0  0  0  0
    4.0261   -0.5809    0.1947 C   0  0  0  0  0  0  0  0  0  0  0  0
    5.0294   -1.2450    0.9005 C   0  0  0  0  0  0  0  0  0  0  0  0
    6.3043   -1.2849    0.3448 C   0  0  0  0  0  0  0  0  0  0  0  0
    6.5200   -0.6628   -0.8832 C   0  0  0  0  0  0  0  0  0  0  0  0
    5.4455   -0.0259   -1.5063 C   0  0  0  0  0  0  0  0  0  0  0  0
    4.2251    0.0153   -0.9808 N   0  0  0  0  0  0  0  0  0  0  0  0
    2.6350   -0.5342    0.7927 C   0  0  0  0  0  0  0  0  0  0  0  0
    2.3953   -1.0386    1.8733 O   0  0  0  0  0  0  0  0  0  0  0  0
    1.7283    0.1050    0.0261 N   0  0  0  0  0  0  0  0  0  0  0  0
   -0.2568   -0.0952   -1.6107 H   0  0  0  0  0  0  0  0  0  0  0  0
    0.0026   -0.7658    0.7675 H   0  0  0  0  0  0  0  0  0  0  0  0
   -0.8881    1.1943    1.9020 H   0  0  0  0  0  0  0  0  0  0  0  0
    0.7903    0.9348    2.4062 H   0  0  0  0  0  0  0  0  0  0  0  0
    0.3490    3.3766    1.9198 H   0  0  0  0  0  0  0  0  0  0  0  0
    1.5584    2.7068    0.8196 H   0  0  0  0  0  0  0  0  0  0  0  0
   -1.4196    3.1133    0.1978 H   0  0  0  0  0  0  0  0  0  0  0  0
   -0.0940    4.0663   -0.4607 H   0  0  0  0  0  0  0  0  0  0  0  0
    0.8382    2.1021   -1.6259 H   0  0  0  0  0  0  0  0  0  0  0  0
   -0.8467    2.3077   -2.1048 H   0  0  0  0  0  0  0  0  0  0  0  0
   -4.1898   -2.8029   -0.4868 H   0  0  0  0  0  0  0  0  0  0  0  0
   -6.6886   -2.7306    0.0005 H   0  0  0  0  0  0  0  0  0  0  0  0
   -7.7303   -0.4931    0.4858 H   0  0  0  0  0  0  0  0  0  0  0  0
   -6.2782    1.5375    0.4681 H   0  0  0  0  0  0  0  0  0  0  0  0
   -2.4967    1.2780   -0.3102 H   0  0  0  0  0  0  0  0  0  0  0  0
    4.7778   -1.7071    1.8549 H   0  0  0  0  0  0  0  0  0  0  0  0
    7.1199   -1.7947    0.8604 H   0  0  0  0  0  0  0  0  0  0  0  0
    7.5018   -0.6683   -1.3572 H   0  0  0  0  0  0  0  0  0  0  0  0
    5.5806    0.4700   -2.4720 H   0  0  0  0  0  0  0  0  0  0  0  0
    2.0664    0.4631   -0.8614 H   0  0  0  0  0  0  0  0  0  0  0  0
  1  2  1  0  0  0  0
  1  6  1  0  0  0  0
  1 15  1  0  0  0  0
  1 25  1  6  0  0  0
  2  3  1  0  0  0  0
  2 24  1  0  0  0  0
  2 26  1  1  0  0  0
  3  4  1  0  0  0  0
  3 27  1  0  0  0  0
  3 28  1  0  0  0  0
  4  5  1  0  0  0  0
  4 29  1  0  0  0  0
  4 30  1  0  0  0  0
  5  6  1  0  0  0  0
  5 31  1  0  0  0  0
  5 32  1  0  0  0  0
  6 33  1  0  0  0  0
  6 34  1  0  0  0  0
  7  8  2  0  0  0  0
  7 12  1  0  0  0  0
  7 13  1  0  0  0  0
  8  9  1  0  0  0  0
  8 35  1  0  0  0  0
  9 10  2  0  0  0  0
  9 36  1  0  0  0  0
 10 11  1  0  0  0  0
 10 37  1  0  0  0  0
 11 12  2  0  0  0  0
 11 38  1  0  0  0  0
 13 14  2  0  0  0  0
 13 15  1  0  0  0  0
 15 39  1  0  0  0  0
 16 17  2  0  0  0  0
 16 21  1  0  0  0  0
 16 22  1  0  0  0  0
 17 18  1  0  0  0  0
 17 40  1  0  0  0  0
 18 19  2  0  0  0  0
 18 41  1  0  0  0  0
 19 20  1  0  0  0  0
 19 42  1  0  0  0  0
 20 21  2  0  0  0  0
 20 43  1  0  0  0  0
 22 23  2  0  0  0  0
 22 24  1  0  0  0  0
 24 44  1  0  0  0  0
M  END
$$$$
