Title Card Required
 OpenBabel03192317553D

 98103  0  0  0  0  0  0  0  0999 V2000
   -0.4437    1.7037   -0.3917 C   0  0  0  0  0  0  0  0  0  0  0  0
   -1.5237    0.8688   -0.7359 C   0  0  0  0  0  0  0  0  0  0  0  0
   -2.3219    1.2131   -1.8376 C   0  0  0  0  0  0  0  0  0  0  0  0
   -2.0293    2.3233   -2.6185 C   0  0  0  0  0  0  0  0  0  0  0  0
   -0.9182    3.1145   -2.3297 C   0  0  0  0  0  0  0  0  0  0  0  0
   -0.1258    2.8007   -1.2250 C   0  0  0  0  0  0  0  0  0  0  0  0
    0.3379    1.6207    0.8864 C   0  0  0  0  0  0  0  0  0  0  0  0
    1.2928    0.6314    1.1856 C   0  0  0  0  0  0  0  0  0  0  0  0
    2.0398    0.7372    2.3681 C   0  0  0  0  0  0  0  0  0  0  0  0
    1.8416    1.7802    3.2647 C   0  0  0  0  0  0  0  0  0  0  0  0
    0.9016    2.7641    2.9730 C   0  0  0  0  0  0  0  0  0  0  0  0
    0.1771    2.6979    1.7866 C   0  0  0  0  0  0  0  0  0  0  0  0
   -0.6308    3.7601    1.4830 O   0  0  0  0  0  0  0  0  0  0  0  0
   -2.0140    3.5728    1.6750 C   0  0  0  0  0  0  0  0  0  0  0  0
    0.9776    3.4996   -0.8830 O   0  0  0  0  0  0  0  0  0  0  0  0
    1.1913    4.7541   -1.4698 C   0  0  0  0  0  0  0  0  0  0  0  0
   -1.8162   -0.6394    0.3029 P   0  0  0  0  0  0  0  0  0  0  0  0
   -3.1373    0.0228    1.4765 C   0  0  0  0  0  0  0  0  0  0  0  0
   -3.6197   -1.0427    2.4717 C   0  0  0  0  0  0  0  0  0  0  0  0
   -4.7697   -1.8902    1.9276 C   0  0  0  0  0  0  0  0  0  0  0  0
   -5.9332   -1.0151    1.4541 C   0  0  0  0  0  0  0  0  0  0  0  0
   -5.4933    0.0584    0.4555 C   0  0  0  0  0  0  0  0  0  0  0  0
   -4.3143    0.8721    0.9799 C   0  0  0  0  0  0  0  0  0  0  0  0
   -2.3769   -2.1287   -0.7457 C   0  0  0  0  0  0  0  0  0  0  0  0
   -1.2063   -2.5443   -1.6665 C   0  0  0  0  0  0  0  0  0  0  0  0
   -1.2919   -1.9334   -3.0645 C   0  0  0  0  0  0  0  0  0  0  0  0
   -2.5964   -2.3254   -3.7556 C   0  0  0  0  0  0  0  0  0  0  0  0
   -3.8120   -1.9164   -2.9240 C   0  0  0  0  0  0  0  0  0  0  0  0
   -3.7031   -2.4143   -1.4821 C   0  0  0  0  0  0  0  0  0  0  0  0
    1.6898   -0.6590   -0.0848 P   0  0  0  0  0  0  0  0  0  0  0  0
    3.5191   -0.2877   -0.3684 C   0  0  0  0  0  0  0  0  0  0  0  0
    3.9543   -0.9654   -1.6799 C   0  0  0  0  0  0  0  0  0  0  0  0
    5.4139   -0.6669   -2.0232 C   0  0  0  0  0  0  0  0  0  0  0  0
    5.6476    0.8374   -2.1392 C   0  0  0  0  0  0  0  0  0  0  0  0
    5.1983    1.5524   -0.8670 C   0  0  0  0  0  0  0  0  0  0  0  0
    3.7483    1.2271   -0.5010 C   0  0  0  0  0  0  0  0  0  0  0  0
    1.5338   -2.2949    0.8653 C   0  0  0  0  0  0  0  0  0  0  0  0
    1.8112   -2.4218    2.3698 C   0  0  0  0  0  0  0  0  0  0  0  0
    3.2839   -2.6266    2.7227 C   0  0  0  0  0  0  0  0  0  0  0  0
    3.8371   -3.8539    2.0010 C   0  0  0  0  0  0  0  0  0  0  0  0
    3.6622   -3.7033    0.4911 C   0  0  0  0  0  0  0  0  0  0  0  0
    2.1968   -3.4645    0.1107 C   0  0  0  0  0  0  0  0  0  0  0  0
   -3.1910    0.6030   -2.0731 H   0  0  0  0  0  0  0  0  0  0  0  0
   -2.6653    2.5778   -3.4680 H   0  0  0  0  0  0  0  0  0  0  0  0
   -0.6802    3.9688   -2.9616 H   0  0  0  0  0  0  0  0  0  0  0  0
    2.8218    0.0061    2.5713 H   0  0  0  0  0  0  0  0  0  0  0  0
    2.4369    1.8401    4.1772 H   0  0  0  0  0  0  0  0  0  0  0  0
    0.7372    3.6201    3.6287 H   0  0  0  0  0  0  0  0  0  0  0  0
   -2.4289    2.8575    0.9478 H   0  0  0  0  0  0  0  0  0  0  0  0
   -2.2283    3.2164    2.6979 H   0  0  0  0  0  0  0  0  0  0  0  0
   -2.4954    4.5476    1.5286 H   0  0  0  0  0  0  0  0  0  0  0  0
    1.4093    4.6699   -2.5475 H   0  0  0  0  0  0  0  0  0  0  0  0
    0.3180    5.4115   -1.3256 H   0  0  0  0  0  0  0  0  0  0  0  0
    2.0598    5.1921   -0.9655 H   0  0  0  0  0  0  0  0  0  0  0  0
   -2.4702    0.7015    2.0387 H   0  0  0  0  0  0  0  0  0  0  0  0
   -2.7770   -1.6800    2.7837 H   0  0  0  0  0  0  0  0  0  0  0  0
   -3.9727   -0.5222    3.3797 H   0  0  0  0  0  0  0  0  0  0  0  0
   -4.4098   -2.5174    1.0976 H   0  0  0  0  0  0  0  0  0  0  0  0
   -5.1192   -2.5847    2.7068 H   0  0  0  0  0  0  0  0  0  0  0  0
   -6.7299   -1.6393    1.0204 H   0  0  0  0  0  0  0  0  0  0  0  0
   -6.3740   -0.5136    2.3337 H   0  0  0  0  0  0  0  0  0  0  0  0
   -5.2124   -0.3984   -0.5053 H   0  0  0  0  0  0  0  0  0  0  0  0
   -6.3363    0.7311    0.2350 H   0  0  0  0  0  0  0  0  0  0  0  0
   -4.6609    1.4756    1.8401 H   0  0  0  0  0  0  0  0  0  0  0  0
   -3.9817    1.5871    0.2125 H   0  0  0  0  0  0  0  0  0  0  0  0
   -2.3626   -2.8400    0.1000 H   0  0  0  0  0  0  0  0  0  0  0  0
   -0.2403   -2.2856   -1.2128 H   0  0  0  0  0  0  0  0  0  0  0  0
   -1.2334   -3.6445   -1.7671 H   0  0  0  0  0  0  0  0  0  0  0  0
   -1.2140   -0.8370   -2.9940 H   0  0  0  0  0  0  0  0  0  0  0  0
   -0.4292   -2.2685   -3.6604 H   0  0  0  0  0  0  0  0  0  0  0  0
   -2.6553   -1.8833   -4.7618 H   0  0  0  0  0  0  0  0  0  0  0  0
   -2.6108   -3.4215   -3.8912 H   0  0  0  0  0  0  0  0  0  0  0  0
   -3.9307   -0.8241   -2.9565 H   0  0  0  0  0  0  0  0  0  0  0  0
   -4.7312   -2.3279   -3.3695 H   0  0  0  0  0  0  0  0  0  0  0  0
   -3.7703   -3.5176   -1.5238 H   0  0  0  0  0  0  0  0  0  0  0  0
   -4.5740   -2.0964   -0.8987 H   0  0  0  0  0  0  0  0  0  0  0  0
    4.1390   -0.6642    0.4648 H   0  0  0  0  0  0  0  0  0  0  0  0
    3.7875   -2.0512   -1.6461 H   0  0  0  0  0  0  0  0  0  0  0  0
    3.3038   -0.5827   -2.4860 H   0  0  0  0  0  0  0  0  0  0  0  0
    6.0661   -1.0798   -1.2329 H   0  0  0  0  0  0  0  0  0  0  0  0
    5.6919   -1.1755   -2.9591 H   0  0  0  0  0  0  0  0  0  0  0  0
    6.7064    1.0522   -2.3505 H   0  0  0  0  0  0  0  0  0  0  0  0
    5.0672    1.2235   -2.9953 H   0  0  0  0  0  0  0  0  0  0  0  0
    5.8531    1.2459   -0.0323 H   0  0  0  0  0  0  0  0  0  0  0  0
    5.3184    2.6417   -0.9746 H   0  0  0  0  0  0  0  0  0  0  0  0
    3.0658    1.6230   -1.2758 H   0  0  0  0  0  0  0  0  0  0  0  0
    3.4807    1.7491    0.4277 H   0  0  0  0  0  0  0  0  0  0  0  0
    0.4442   -2.4164    0.7614 H   0  0  0  0  0  0  0  0  0  0  0  0
    1.3688   -1.5805    2.9195 H   0  0  0  0  0  0  0  0  0  0  0  0
    1.2652   -3.3205    2.7122 H   0  0  0  0  0  0  0  0  0  0  0  0
    3.8802   -1.7458    2.4277 H   0  0  0  0  0  0  0  0  0  0  0  0
    3.3978   -2.7332    3.8127 H   0  0  0  0  0  0  0  0  0  0  0  0
    4.8981   -4.0085    2.2493 H   0  0  0  0  0  0  0  0  0  0  0  0
    3.2946   -4.7511    2.3475 H   0  0  0  0  0  0  0  0  0  0  0  0
    4.2891   -2.8631    0.1532 H   0  0  0  0  0  0  0  0  0  0  0  0
    4.0341   -4.5982   -0.0316 H   0  0  0  0  0  0  0  0  0  0  0  0
    1.6328   -4.3813    0.3590 H   0  0  0  0  0  0  0  0  0  0  0  0
    2.0935   -3.3322   -0.9794 H   0  0  0  0  0  0  0  0  0  0  0  0
  1  2  2  0  0  0  0
  1  6  1  0  0  0  0
  1  7  1  0  0  0  0
  2  3  1  0  0  0  0
  2 17  1  0  0  0  0
  3  4  2  0  0  0  0
  3 43  1  0  0  0  0
  4  5  1  0  0  0  0
  4 44  1  0  0  0  0
  5  6  2  0  0  0  0
  5 45  1  0  0  0  0
  6 15  1  0  0  0  0
  7  8  2  0  0  0  0
  7 12  1  0  0  0  0
  8  9  1  0  0  0  0
  8 30  1  0  0  0  0
  9 10  2  0  0  0  0
  9 46  1  0  0  0  0
 10 11  1  0  0  0  0
 10 47  1  0  0  0  0
 11 12  2  0  0  0  0
 11 48  1  0  0  0  0
 12 13  1  0  0  0  0
 13 14  1  0  0  0  0
 14 49  1  0  0  0  0
 14 50  1  0  0  0  0
 14 51  1  0  0  0  0
 15 16  1  0  0  0  0
 16 52  1  0  0  0  0
 16 53  1  0  0  0  0
 16 54  1  0  0  0  0
 17 18  1  0  0  0  0
 17 24  1  0  0  0  0
 18 19  1  0  0  0  0
 18 23  1  0  0  0  0
 18 55  1  0  0  0  0
 19 20  1  0  0  0  0
 19 56  1  0  0  0  0
 19 57  1  0  0  0  0
 20 21  1  0  0  0  0
 20 58  1  0  0  0  0
 20 59  1  0  0  0  0
 21 22  1  0  0  0  0
 21 60  1  0  0  0  0
 21 61  1  0  0  0  0
 22 23  1  0  0  0  0
 22 62  1  0  0  0  0
 22 63  1  0  0  0  0
 23 64  1  0  0  0  0
 23 65  1  0  0  0  0
 24 25  1  0  0  0  0
 24 29  1  0  0  0  0
 24 66  1  0  0  0  0
 25 26  1  0  0  0  0
 25 67  1  0  0  0  0
 25 68  1  0  0  0  0
 26 27  1  0  0  0  0
 26 69  1  0  0  0  0
 26 70  1  0  0  0  0
 27 28  1  0  0  0  0
 27 71  1  0  0  0  0
 27 72  1  0  0  0  0
 28 29  1  0  0  0  0
 28 73  1  0  0  0  0
 28 74  1  0  0  0  0
 29 75  1  0  0  0  0
 29 76  1  0  0  0  0
 30 31  1  0  0  0  0
 30 37  1  0  0  0  0
 31 32  1  0  0  0  0
 31 36  1  0  0  0  0
 31 77  1  0  0  0  0
 32 33  1  0  0  0  0
 32 78  1  0  0  0  0
 32 79  1  0  0  0  0
 33 34  1  0  0  0  0
 33 80  1  0  0  0  0
 33 81  1  0  0  0  0
 34 35  1  0  0  0  0
 34 82  1  0  0  0  0
 34 83  1  0  0  0  0
 35 36  1  0  0  0  0
 35 84  1  0  0  0  0
 35 85  1  0  0  0  0
 36 86  1  0  0  0  0
 36 87  1  0  0  0  0
 37 38  1  0  0  0  0
 37 42  1  0  0  0  0
 37 88  1  0  0  0  0
 38 39  1  0  0  0  0
 38 89  1  0  0  0  0
 38 90  1  0  0  0  0
 39 40  1  0  0  0  0
 39 91  1  0  0  0  0
 39 92  1  0  0  0  0
 40 41  1  0  0  0  0
 40 93  1  0  0  0  0
 40 94  1  0  0  0  0
 41 42  1  0  0  0  0
 41 95  1  0  0  0  0
 41 96  1  0  0  0  0
 42 97  1  0  0  0  0
 42 98  1  0  0  0  0
M  END
$$$$
