Title Card Required
 OpenBabel03192317463D

 47 51  0  0  1  0  0  0  0  0999 V2000
   -1.1586    2.2772    0.3030 C   0  0  0  0  0  0  0  0  0  0  0  0
   -1.1023    0.8788    0.2828 C   0  0  0  0  0  0  0  0  0  0  0  0
   -0.0001    0.1927   -0.0001 N   0  0  0  0  0  0  0  0  0  0  0  0
    1.1022    0.8790   -0.2827 C   0  0  0  0  0  0  0  0  0  0  0  0
    1.1584    2.2775   -0.3022 C   0  0  0  0  0  0  0  0  0  0  0  0
   -0.0001    2.9850    0.0005 C   0  0  0  0  0  0  0  0  0  0  0  0
   -2.3371    0.1120    0.5897 C   0  0  0  0  0  0  0  0  0  0  0  0
    2.3371    0.1124   -0.5898 C   0  0  0  0  0  0  0  0  0  0  0  0
   -2.2482   -1.2271    0.5608 O   0  0  0  0  0  0  0  0  0  0  0  0
   -3.5739   -1.7180    0.7618 C   0  0  0  0  0  0  0  0  0  0  0  0
   -4.3853   -0.4476    1.1468 C   0  0  1  0  0  0  0  0  0  0  0  0
   -3.4541    0.6442    0.8789 N   0  0  0  0  0  0  0  0  0  0  0  0
    3.4542    0.6448   -0.8781 N   0  0  0  0  0  0  0  0  0  0  0  0
    4.3853   -0.4469   -1.1467 C   0  0  2  0  0  0  0  0  0  0  0  0
    3.5739   -1.7175   -0.7625 C   0  0  0  0  0  0  0  0  0  0  0  0
    2.2480   -1.2267   -0.5622 O   0  0  0  0  0  0  0  0  0  0  0  0
   -5.6955   -0.3273    0.3992 C   0  0  0  0  0  0  0  0  0  0  0  0
    5.6956   -0.3271   -0.3991 C   0  0  0  0  0  0  0  0  0  0  0  0
   -6.7419   -1.2064    0.7000 C   0  0  0  0  0  0  0  0  0  0  0  0
   -7.9426   -1.1466   -0.0032 C   0  0  0  0  0  0  0  0  0  0  0  0
   -8.1128   -0.1994   -1.0137 C   0  0  0  0  0  0  0  0  0  0  0  0
   -7.0770    0.6831   -1.3124 C   0  0  0  0  0  0  0  0  0  0  0  0
   -5.8728    0.6199   -0.6107 C   0  0  0  0  0  0  0  0  0  0  0  0
    5.8746    0.6227    0.6081 C   0  0  0  0  0  0  0  0  0  0  0  0
    7.0789    0.6854    1.3098 C   0  0  0  0  0  0  0  0  0  0  0  0
    8.1130   -0.1999    1.0137 C   0  0  0  0  0  0  0  0  0  0  0  0
    7.9410   -1.1498    0.0059 C   0  0  0  0  0  0  0  0  0  0  0  0
    6.7403   -1.2092   -0.6972 C   0  0  0  0  0  0  0  0  0  0  0  0
   -2.1007    2.7654    0.5515 H   0  0  0  0  0  0  0  0  0  0  0  0
    2.1004    2.7658   -0.5506 H   0  0  0  0  0  0  0  0  0  0  0  0
   -0.0002    4.0757    0.0008 H   0  0  0  0  0  0  0  0  0  0  0  0
   -3.5520   -2.4865    1.5443 H   0  0  0  0  0  0  0  0  0  0  0  0
   -3.9333   -2.1636   -0.1782 H   0  0  0  0  0  0  0  0  0  0  0  0
   -4.6116   -0.4459    2.2273 H   0  0  0  0  0  0  0  0  0  0  0  0
    4.6116   -0.4445   -2.2272 H   0  0  0  0  0  0  0  0  0  0  0  0
    3.5526   -2.4858   -1.5451 H   0  0  0  0  0  0  0  0  0  0  0  0
    3.9328   -2.1631    0.1776 H   0  0  0  0  0  0  0  0  0  0  0  0
   -6.6165   -1.9448    1.4968 H   0  0  0  0  0  0  0  0  0  0  0  0
   -8.7508   -1.8380    0.2405 H   0  0  0  0  0  0  0  0  0  0  0  0
   -9.0535   -0.1487   -1.5642 H   0  0  0  0  0  0  0  0  0  0  0  0
   -7.2062    1.4301   -2.0974 H   0  0  0  0  0  0  0  0  0  0  0  0
   -5.0592    1.3114   -0.8322 H   0  0  0  0  0  0  0  0  0  0  0  0
    5.0623    1.3162    0.8276 H   0  0  0  0  0  0  0  0  0  0  0  0
    7.2094    1.4344    2.0927 H   0  0  0  0  0  0  0  0  0  0  0  0
    9.0537   -0.1496    1.5642 H   0  0  0  0  0  0  0  0  0  0  0  0
    8.7478   -1.8436   -0.2357 H   0  0  0  0  0  0  0  0  0  0  0  0
    6.6135   -1.9497   -1.4919 H   0  0  0  0  0  0  0  0  0  0  0  0
  1  2  2  0  0  0  0
  1  6  1  0  0  0  0
  1 29  1  0  0  0  0
  2  3  1  0  0  0  0
  2  7  1  0  0  0  0
  3  4  2  0  0  0  0
  4  5  1  0  0  0  0
  4  8  1  0  0  0  0
  5  6  2  0  0  0  0
  5 30  1  0  0  0  0
  6 31  1  0  0  0  0
  7  9  1  0  0  0  0
  7 12  2  0  0  0  0
  8 13  2  0  0  0  0
  8 16  1  0  0  0  0
  9 10  1  0  0  0  0
 10 11  1  0  0  0  0
 10 32  1  0  0  0  0
 10 33  1  0  0  0  0
 11 12  1  0  0  0  0
 11 17  1  0  0  0  0
 11 34  1  1  0  0  0
 13 14  1  0  0  0  0
 14 15  1  0  0  0  0
 14 18  1  0  0  0  0
 14 35  1  6  0  0  0
 15 16  1  0  0  0  0
 15 36  1  0  0  0  0
 15 37  1  0  0  0  0
 17 19  2  0  0  0  0
 17 23  1  0  0  0  0
 18 24  2  0  0  0  0
 18 28  1  0  0  0  0
 19 20  1  0  0  0  0
 19 38  1  0  0  0  0
 20 21  2  0  0  0  0
 20 39  1  0  0  0  0
 21 22  1  0  0  0  0
 21 40  1  0  0  0  0
 22 23  2  0  0  0  0
 22 41  1  0  0  0  0
 23 42  1  0  0  0  0
 24 25  1  0  0  0  0
 24 43  1  0  0  0  0
 25 26  2  0  0  0  0
 25 44  1  0  0  0  0
 26 27  1  0  0  0  0
 26 45  1  0  0  0  0
 27 28  2  0  0  0  0
 27 46  1  0  0  0  0
 28 47  1  0  0  0  0
M  END
$$$$
