Title Card Required
 OpenBabel03192317503D

 92 98  0  0  1  0  0  0  0  0999 V2000
   -0.0875   -1.0852    0.6720 C   0  0  2  0  0  0  0  0  0  0  0  0
    1.2002   -1.9174    0.6179 C   0  0  2  0  0  0  0  0  0  0  0  0
    1.0569   -3.1792    1.4841 C   0  0  0  0  0  0  0  0  0  0  0  0
    0.7438   -2.8130    2.9362 C   0  0  0  0  0  0  0  0  0  0  0  0
   -0.5191   -1.9519    3.0224 C   0  0  0  0  0  0  0  0  0  0  0  0
   -0.4389   -0.7149    2.1218 C   0  0  0  0  0  0  0  0  0  0  0  0
   -1.1971   -1.7600   -0.0004 N   0  0  0  0  0  0  0  0  0  0  0  0
    2.3058   -1.0475    0.9908 N   0  0  0  0  0  0  0  0  0  0  0  0
    3.6459   -1.5675    0.8641 C   0  0  0  0  0  0  0  0  0  0  0  0
   -2.1192   -0.8149   -0.6134 C   0  0  0  0  0  0  0  0  0  0  0  0
   -3.3785   -1.5019   -1.0902 C   0  0  0  0  0  0  0  0  0  0  0  0
    4.0010   -1.8388   -0.5828 C   0  0  0  0  0  0  0  0  0  0  0  0
   -3.2331   -2.7197   -1.7661 C   0  0  0  0  0  0  0  0  0  0  0  0
   -4.3329   -3.4073   -2.2733 C   0  0  0  0  0  0  0  0  0  0  0  0
   -5.6130   -2.8845   -2.1105 C   0  0  0  0  0  0  0  0  0  0  0  0
   -5.7747   -1.6788   -1.4321 C   0  0  0  0  0  0  0  0  0  0  0  0
   -4.6771   -0.9743   -0.9136 C   0  0  0  0  0  0  0  0  0  0  0  0
    4.1580   -0.8255   -1.5597 C   0  0  0  0  0  0  0  0  0  0  0  0
    4.4451   -1.2087   -2.8788 C   0  0  0  0  0  0  0  0  0  0  0  0
    4.5640   -2.5467   -3.2550 C   0  0  0  0  0  0  0  0  0  0  0  0
    4.4158   -3.5367   -2.2926 C   0  0  0  0  0  0  0  0  0  0  0  0
    4.1413   -3.1733   -0.9742 C   0  0  0  0  0  0  0  0  0  0  0  0
    4.1083    1.0243   -1.3848 P   0  0  0  0  0  0  0  0  0  0  0  0
    2.3824    1.4751   -0.8973 C   0  0  0  0  0  0  0  0  0  0  0  0
    1.9600    1.9638    0.3455 C   0  0  0  0  0  0  0  0  0  0  0  0
    0.6516    2.4144    0.5255 C   0  0  0  0  0  0  0  0  0  0  0  0
   -0.2680    2.3641   -0.5245 C   0  0  0  0  0  0  0  0  0  0  0  0
    0.1393    1.8598   -1.7590 C   0  0  0  0  0  0  0  0  0  0  0  0
    1.4542    1.4349   -1.9454 C   0  0  0  0  0  0  0  0  0  0  0  0
    5.1693    1.4223    0.0587 C   0  0  0  0  0  0  0  0  0  0  0  0
    6.2090    0.5761    0.4706 C   0  0  0  0  0  0  0  0  0  0  0  0
    7.1134    0.9820    1.4511 C   0  0  0  0  0  0  0  0  0  0  0  0
    7.0037    2.2443    2.0321 C   0  0  0  0  0  0  0  0  0  0  0  0
    5.9929    3.1071    1.6091 C   0  0  0  0  0  0  0  0  0  0  0  0
    5.0942    2.7053    0.6238 C   0  0  0  0  0  0  0  0  0  0  0  0
   -5.1418    0.5692   -0.0106 P   0  0  0  0  0  0  0  0  0  0  0  0
   -4.2377    0.3805    1.5952 C   0  0  0  0  0  0  0  0  0  0  0  0
   -3.6214    1.4402    2.2730 C   0  0  0  0  0  0  0  0  0  0  0  0
   -3.1329    1.2687    3.5692 C   0  0  0  0  0  0  0  0  0  0  0  0
   -3.2450    0.0365    4.2095 C   0  0  0  0  0  0  0  0  0  0  0  0
   -3.8398   -1.0309    3.5366 C   0  0  0  0  0  0  0  0  0  0  0  0
   -4.3343   -0.8604    2.2447 C   0  0  0  0  0  0  0  0  0  0  0  0
   -4.2505    1.9098   -0.9074 C   0  0  0  0  0  0  0  0  0  0  0  0
   -3.6030    1.7057   -2.1332 C   0  0  0  0  0  0  0  0  0  0  0  0
   -3.0678    2.7820   -2.8418 C   0  0  0  0  0  0  0  0  0  0  0  0
   -3.1499    4.0759   -2.3315 C   0  0  0  0  0  0  0  0  0  0  0  0
   -3.8122    4.2955   -1.1235 C   0  0  0  0  0  0  0  0  0  0  0  0
   -4.3781    3.2258   -0.4329 C   0  0  0  0  0  0  0  0  0  0  0  0
    0.1237   -0.1670    0.1075 H   0  0  0  0  0  0  0  0  0  0  0  0
    1.3484   -2.2115   -0.4337 H   0  0  0  0  0  0  0  0  0  0  0  0
    0.2384   -3.7902    1.0670 H   0  0  0  0  0  0  0  0  0  0  0  0
    1.9667   -3.7976    1.4247 H   0  0  0  0  0  0  0  0  0  0  0  0
    1.5969   -2.2578    3.3654 H   0  0  0  0  0  0  0  0  0  0  0  0
    0.6309   -3.7206    3.5481 H   0  0  0  0  0  0  0  0  0  0  0  0
   -1.3889   -2.5652    2.7250 H   0  0  0  0  0  0  0  0  0  0  0  0
   -0.7173   -1.6478    4.0618 H   0  0  0  0  0  0  0  0  0  0  0  0
    0.3097   -0.0091    2.5228 H   0  0  0  0  0  0  0  0  0  0  0  0
   -1.3958   -0.1710    2.1303 H   0  0  0  0  0  0  0  0  0  0  0  0
   -1.7143   -2.3379    0.6615 H   0  0  0  0  0  0  0  0  0  0  0  0
    2.1658   -0.6255    1.9028 H   0  0  0  0  0  0  0  0  0  0  0  0
    4.3310   -0.8173    1.2822 H   0  0  0  0  0  0  0  0  0  0  0  0
    3.8198   -2.5056    1.4319 H   0  0  0  0  0  0  0  0  0  0  0  0
   -2.3713    0.0330    0.0487 H   0  0  0  0  0  0  0  0  0  0  0  0
   -1.6094   -0.3655   -1.4848 H   0  0  0  0  0  0  0  0  0  0  0  0
   -2.2248   -3.1219   -1.8799 H   0  0  0  0  0  0  0  0  0  0  0  0
   -4.1872   -4.3537   -2.7971 H   0  0  0  0  0  0  0  0  0  0  0  0
   -6.4837   -3.4124   -2.5021 H   0  0  0  0  0  0  0  0  0  0  0  0
   -6.7767   -1.2682   -1.2893 H   0  0  0  0  0  0  0  0  0  0  0  0
    4.5877   -0.4276   -3.6287 H   0  0  0  0  0  0  0  0  0  0  0  0
    4.7813   -2.8047   -4.2925 H   0  0  0  0  0  0  0  0  0  0  0  0
    4.5111   -4.5905   -2.5593 H   0  0  0  0  0  0  0  0  0  0  0  0
    4.0206   -3.9518   -0.2169 H   0  0  0  0  0  0  0  0  0  0  0  0
    2.6555    1.9857    1.1864 H   0  0  0  0  0  0  0  0  0  0  0  0
    0.3420    2.7941    1.5013 H   0  0  0  0  0  0  0  0  0  0  0  0
   -1.2972    2.7086   -0.3882 H   0  0  0  0  0  0  0  0  0  0  0  0
   -0.5686    1.8128   -2.5873 H   0  0  0  0  0  0  0  0  0  0  0  0
    1.7701    1.0771   -2.9293 H   0  0  0  0  0  0  0  0  0  0  0  0
    6.3125   -0.4142    0.0198 H   0  0  0  0  0  0  0  0  0  0  0  0
    7.9110    0.3047    1.7612 H   0  0  0  0  0  0  0  0  0  0  0  0
    7.7092    2.5598    2.8021 H   0  0  0  0  0  0  0  0  0  0  0  0
    5.9075    4.1056    2.0413 H   0  0  0  0  0  0  0  0  0  0  0  0
    4.3275    3.4044    0.2815 H   0  0  0  0  0  0  0  0  0  0  0  0
   -3.5068    2.4120    1.7915 H   0  0  0  0  0  0  0  0  0  0  0  0
   -2.6557    2.1083    4.0778 H   0  0  0  0  0  0  0  0  0  0  0  0
   -2.8651   -0.0942    5.2239 H   0  0  0  0  0  0  0  0  0  0  0  0
   -3.9264   -2.0048    4.0222 H   0  0  0  0  0  0  0  0  0  0  0  0
   -4.8151   -1.7011    1.7372 H   0  0  0  0  0  0  0  0  0  0  0  0
   -3.5318    0.6998   -2.5513 H   0  0  0  0  0  0  0  0  0  0  0  0
   -2.5813    2.6056   -3.8031 H   0  0  0  0  0  0  0  0  0  0  0  0
   -2.7163    4.9125   -2.8812 H   0  0  0  0  0  0  0  0  0  0  0  0
   -3.9097    5.3076   -0.7273 H   0  0  0  0  0  0  0  0  0  0  0  0
   -4.9475    3.4217    0.4790 H   0  0  0  0  0  0  0  0  0  0  0  0
  1  2  1  0  0  0  0
  1  6  1  0  0  0  0
  1  7  1  0  0  0  0
  1 49  1  6  0  0  0
  2  3  1  0  0  0  0
  2  8  1  0  0  0  0
  2 50  1  6  0  0  0
  3  4  1  0  0  0  0
  3 51  1  0  0  0  0
  3 52  1  0  0  0  0
  4  5  1  0  0  0  0
  4 53  1  0  0  0  0
  4 54  1  0  0  0  0
  5  6  1  0  0  0  0
  5 55  1  0  0  0  0
  5 56  1  0  0  0  0
  6 57  1  0  0  0  0
  6 58  1  0  0  0  0
  7 10  1  0  0  0  0
  7 59  1  0  0  0  0
  8  9  1  0  0  0  0
  8 60  1  0  0  0  0
  9 12  1  0  0  0  0
  9 61  1  0  0  0  0
  9 62  1  0  0  0  0
 10 11  1  0  0  0  0
 10 63  1  0  0  0  0
 10 64  1  0  0  0  0
 11 13  2  0  0  0  0
 11 17  1  0  0  0  0
 12 18  2  0  0  0  0
 12 22  1  0  0  0  0
 13 14  1  0  0  0  0
 13 65  1  0  0  0  0
 14 15  2  0  0  0  0
 14 66  1  0  0  0  0
 15 16  1  0  0  0  0
 15 67  1  0  0  0  0
 16 17  2  0  0  0  0
 16 68  1  0  0  0  0
 17 36  1  0  0  0  0
 18 19  1  0  0  0  0
 18 23  1  0  0  0  0
 19 20  2  0  0  0  0
 19 69  1  0  0  0  0
 20 21  1  0  0  0  0
 20 70  1  0  0  0  0
 21 22  2  0  0  0  0
 21 71  1  0  0  0  0
 22 72  1  0  0  0  0
 23 24  1  0  0  0  0
 23 30  1  0  0  0  0
 24 25  2  0  0  0  0
 24 29  1  0  0  0  0
 25 26  1  0  0  0  0
 25 73  1  0  0  0  0
 26 27  2  0  0  0  0
 26 74  1  0  0  0  0
 27 28  1  0  0  0  0
 27 75  1  0  0  0  0
 28 29  2  0  0  0  0
 28 76  1  0  0  0  0
 29 77  1  0  0  0  0
 30 31  2  0  0  0  0
 30 35  1  0  0  0  0
 31 32  1  0  0  0  0
 31 78  1  0  0  0  0
 32 33  2  0  0  0  0
 32 79  1  0  0  0  0
 33 34  1  0  0  0  0
 33 80  1  0  0  0  0
 34 35  2  0  0  0  0
 34 81  1  0  0  0  0
 35 82  1  0  0  0  0
 36 37  1  0  0  0  0
 36 43  1  0  0  0  0
 37 38  2  0  0  0  0
 37 42  1  0  0  0  0
 38 39  1  0  0  0  0
 38 83  1  0  0  0  0
 39 40  2  0  0  0  0
 39 84  1  0  0  0  0
 40 41  1  0  0  0  0
 40 85  1  0  0  0  0
 41 42  2  0  0  0  0
 41 86  1  0  0  0  0
 42 87  1  0  0  0  0
 43 44  2  0  0  0  0
 43 48  1  0  0  0  0
 44 45  1  0  0  0  0
 44 88  1  0  0  0  0
 45 46  2  0  0  0  0
 45 89  1  0  0  0  0
 46 47  1  0  0  0  0
 46 90  1  0  0  0  0
 47 48  2  0  0  0  0
 47 91  1  0  0  0  0
 48 92  1  0  0  0  0
M  END
$$$$
