Title Card Required
 OpenBabel03192317423D

 92 98  0  0  1  0  0  0  0  0999 V2000
   -1.5002    2.0246   -1.4858 C   0  0  1  0  0  0  0  0  0  0  0  0
   -0.0140    1.8661   -1.8342 C   0  0  1  0  0  0  0  0  0  0  0  0
    0.7835    3.0514   -1.2826 C   0  0  0  0  0  0  0  0  0  0  0  0
    0.2615    4.3879   -1.8009 C   0  0  0  0  0  0  0  0  0  0  0  0
   -1.2217    4.5476   -1.4758 C   0  0  0  0  0  0  0  0  0  0  0  0
   -2.0248    3.3637   -2.0051 C   0  0  0  0  0  0  0  0  0  0  0  0
   -2.3320    0.9500   -2.0171 N   0  0  0  0  0  0  0  0  0  0  0  0
    0.5529    0.6143   -1.3485 N   0  0  0  0  0  0  0  0  0  0  0  0
    0.8229   -0.4229   -2.3171 C   0  0  0  0  0  0  0  0  0  0  0  0
    1.5020   -1.5833   -1.6283 C   0  0  0  0  0  0  0  0  0  0  0  0
    2.6761   -1.3745   -0.8694 C   0  0  0  0  0  0  0  0  0  0  0  0
    3.2700   -2.4703   -0.2320 C   0  0  0  0  0  0  0  0  0  0  0  0
    2.7241   -3.7517   -0.3396 C   0  0  0  0  0  0  0  0  0  0  0  0
    1.5713   -3.9527   -1.0919 C   0  0  0  0  0  0  0  0  0  0  0  0
    0.9629   -2.8673   -1.7218 C   0  0  0  0  0  0  0  0  0  0  0  0
    3.4698    0.3101   -0.8870 P   0  0  0  0  0  0  0  0  0  0  0  0
    2.9009    1.0957    0.6794 C   0  0  0  0  0  0  0  0  0  0  0  0
    3.3944    2.3748    0.9657 C   0  0  0  0  0  0  0  0  0  0  0  0
    2.9617    3.0708    2.0925 C   0  0  0  0  0  0  0  0  0  0  0  0
    2.0186    2.4998    2.9480 C   0  0  0  0  0  0  0  0  0  0  0  0
    1.5220    1.2259    2.6729 C   0  0  0  0  0  0  0  0  0  0  0  0
    1.9634    0.5294    1.5473 C   0  0  0  0  0  0  0  0  0  0  0  0
    5.2025   -0.1479   -0.4174 C   0  0  0  0  0  0  0  0  0  0  0  0
    6.0531   -0.5270   -1.4653 C   0  0  0  0  0  0  0  0  0  0  0  0
    7.3704   -0.9059   -1.2173 C   0  0  0  0  0  0  0  0  0  0  0  0
    7.8654   -0.8929    0.0869 C   0  0  0  0  0  0  0  0  0  0  0  0
    7.0344   -0.5029    1.1360 C   0  0  0  0  0  0  0  0  0  0  0  0
    5.7115   -0.1348    0.8877 C   0  0  0  0  0  0  0  0  0  0  0  0
   -2.4195   -0.2628   -1.2062 C   0  0  0  0  0  0  0  0  0  0  0  0
   -3.8135   -0.8447   -1.2491 C   0  0  0  0  0  0  0  0  0  0  0  0
   -4.5745   -1.1267   -0.0946 C   0  0  0  0  0  0  0  0  0  0  0  0
   -5.8756   -1.6281   -0.2425 C   0  0  0  0  0  0  0  0  0  0  0  0
   -6.4295   -1.8558   -1.5011 C   0  0  0  0  0  0  0  0  0  0  0  0
   -5.6753   -1.5821   -2.6384 C   0  0  0  0  0  0  0  0  0  0  0  0
   -4.3815   -1.0810   -2.5068 C   0  0  0  0  0  0  0  0  0  0  0  0
   -4.0101   -0.9448    1.6636 P   0  0  0  0  0  0  0  0  0  0  0  0
   -2.5179   -2.0440    1.6648 C   0  0  0  0  0  0  0  0  0  0  0  0
   -1.1683   -1.6800    1.5548 C   0  0  0  0  0  0  0  0  0  0  0  0
   -0.1718   -2.6562    1.5494 C   0  0  0  0  0  0  0  0  0  0  0  0
   -0.5033   -4.0059    1.6564 C   0  0  0  0  0  0  0  0  0  0  0  0
   -1.8395   -4.3801    1.7771 C   0  0  0  0  0  0  0  0  0  0  0  0
   -2.8337   -3.4047    1.7900 C   0  0  0  0  0  0  0  0  0  0  0  0
   -3.3868    0.7848    1.7146 C   0  0  0  0  0  0  0  0  0  0  0  0
   -4.0394    1.7808    0.9709 C   0  0  0  0  0  0  0  0  0  0  0  0
   -3.6807    3.1202    1.1096 C   0  0  0  0  0  0  0  0  0  0  0  0
   -2.6535    3.4881    1.9788 C   0  0  0  0  0  0  0  0  0  0  0  0
   -2.0054    2.5084    2.7294 C   0  0  0  0  0  0  0  0  0  0  0  0
   -2.3828    1.1706    2.6140 C   0  0  0  0  0  0  0  0  0  0  0  0
   -1.5576    2.0457   -0.3718 H   0  0  0  0  0  0  0  0  0  0  0  0
    0.0598    1.8656   -2.9369 H   0  0  0  0  0  0  0  0  0  0  0  0
    0.7212    3.0223   -0.1786 H   0  0  0  0  0  0  0  0  0  0  0  0
    1.8440    2.9035   -1.5370 H   0  0  0  0  0  0  0  0  0  0  0  0
    0.8422    5.2190   -1.3732 H   0  0  0  0  0  0  0  0  0  0  0  0
    0.3998    4.4341   -2.8953 H   0  0  0  0  0  0  0  0  0  0  0  0
   -1.3469    4.6005   -0.3809 H   0  0  0  0  0  0  0  0  0  0  0  0
   -1.6153    5.4880   -1.8906 H   0  0  0  0  0  0  0  0  0  0  0  0
   -1.9873    3.3421   -3.1086 H   0  0  0  0  0  0  0  0  0  0  0  0
   -3.0860    3.4627   -1.7215 H   0  0  0  0  0  0  0  0  0  0  0  0
   -3.2729    1.3127   -2.1517 H   0  0  0  0  0  0  0  0  0  0  0  0
    0.0472    0.2509   -0.5432 H   0  0  0  0  0  0  0  0  0  0  0  0
   -0.0732   -0.7794   -2.8639 H   0  0  0  0  0  0  0  0  0  0  0  0
    1.5121   -0.0014   -3.0706 H   0  0  0  0  0  0  0  0  0  0  0  0
    4.1863   -2.3282    0.3441 H   0  0  0  0  0  0  0  0  0  0  0  0
    3.2105   -4.5901    0.1624 H   0  0  0  0  0  0  0  0  0  0  0  0
    1.1358   -4.9493   -1.1832 H   0  0  0  0  0  0  0  0  0  0  0  0
    0.0478   -3.0167   -2.2998 H   0  0  0  0  0  0  0  0  0  0  0  0
    4.1217    2.8356    0.2910 H   0  0  0  0  0  0  0  0  0  0  0  0
    3.3575    4.0666    2.2994 H   0  0  0  0  0  0  0  0  0  0  0  0
    1.6782    3.0451    3.8302 H   0  0  0  0  0  0  0  0  0  0  0  0
    0.7916    0.7638    3.3411 H   0  0  0  0  0  0  0  0  0  0  0  0
    1.5722   -0.4670    1.3374 H   0  0  0  0  0  0  0  0  0  0  0  0
    5.6736   -0.5249   -2.4908 H   0  0  0  0  0  0  0  0  0  0  0  0
    8.0157   -1.2023   -2.0459 H   0  0  0  0  0  0  0  0  0  0  0  0
    8.8995   -1.1801    0.2843 H   0  0  0  0  0  0  0  0  0  0  0  0
    7.4163   -0.4869    2.1584 H   0  0  0  0  0  0  0  0  0  0  0  0
    5.0692    0.1613    1.7198 H   0  0  0  0  0  0  0  0  0  0  0  0
   -1.7092   -1.0314   -1.5637 H   0  0  0  0  0  0  0  0  0  0  0  0
   -2.1448   -0.0485   -0.1654 H   0  0  0  0  0  0  0  0  0  0  0  0
   -6.4621   -1.8414    0.6541 H   0  0  0  0  0  0  0  0  0  0  0  0
   -7.4446   -2.2454   -1.5897 H   0  0  0  0  0  0  0  0  0  0  0  0
   -6.0924   -1.7576   -3.6316 H   0  0  0  0  0  0  0  0  0  0  0  0
   -3.7871   -0.8563   -3.3957 H   0  0  0  0  0  0  0  0  0  0  0  0
   -0.8828   -0.6277    1.4679 H   0  0  0  0  0  0  0  0  0  0  0  0
    0.8778   -2.3741    1.4389 H   0  0  0  0  0  0  0  0  0  0  0  0
    0.2856   -4.7598    1.6427 H   0  0  0  0  0  0  0  0  0  0  0  0
   -2.1109   -5.4330    1.8683 H   0  0  0  0  0  0  0  0  0  0  0  0
   -3.8804   -3.7029    1.8965 H   0  0  0  0  0  0  0  0  0  0  0  0
   -4.8409    1.5048    0.2809 H   0  0  0  0  0  0  0  0  0  0  0  0
   -4.2064    3.8837    0.5328 H   0  0  0  0  0  0  0  0  0  0  0  0
   -2.3666    4.5360    2.0790 H   0  0  0  0  0  0  0  0  0  0  0  0
   -1.2048    2.7865    3.4169 H   0  0  0  0  0  0  0  0  0  0  0  0
   -1.8934    0.4185    3.2371 H   0  0  0  0  0  0  0  0  0  0  0  0
  1  2  1  0  0  0  0
  1  6  1  0  0  0  0
  1  7  1  0  0  0  0
  1 49  1  1  0  0  0
  2  3  1  0  0  0  0
  2  8  1  0  0  0  0
  2 50  1  6  0  0  0
  3  4  1  0  0  0  0
  3 51  1  0  0  0  0
  3 52  1  0  0  0  0
  4  5  1  0  0  0  0
  4 53  1  0  0  0  0
  4 54  1  0  0  0  0
  5  6  1  0  0  0  0
  5 55  1  0  0  0  0
  5 56  1  0  0  0  0
  6 57  1  0  0  0  0
  6 58  1  0  0  0  0
  7 29  1  0  0  0  0
  7 59  1  0  0  0  0
  8  9  1  0  0  0  0
  8 60  1  0  0  0  0
  9 10  1  0  0  0  0
  9 61  1  0  0  0  0
  9 62  1  0  0  0  0
 10 11  2  0  0  0  0
 10 15  1  0  0  0  0
 11 12  1  0  0  0  0
 11 16  1  0  0  0  0
 12 13  2  0  0  0  0
 12 63  1  0  0  0  0
 13 14  1  0  0  0  0
 13 64  1  0  0  0  0
 14 15  2  0  0  0  0
 14 65  1  0  0  0  0
 15 66  1  0  0  0  0
 16 17  1  0  0  0  0
 16 23  1  0  0  0  0
 17 18  2  0  0  0  0
 17 22  1  0  0  0  0
 18 19  1  0  0  0  0
 18 67  1  0  0  0  0
 19 20  2  0  0  0  0
 19 68  1  0  0  0  0
 20 21  1  0  0  0  0
 20 69  1  0  0  0  0
 21 22  2  0  0  0  0
 21 70  1  0  0  0  0
 22 71  1  0  0  0  0
 23 24  2  0  0  0  0
 23 28  1  0  0  0  0
 24 25  1  0  0  0  0
 24 72  1  0  0  0  0
 25 26  2  0  0  0  0
 25 73  1  0  0  0  0
 26 27  1  0  0  0  0
 26 74  1  0  0  0  0
 27 28  2  0  0  0  0
 27 75  1  0  0  0  0
 28 76  1  0  0  0  0
 29 30  1  0  0  0  0
 29 77  1  0  0  0  0
 29 78  1  0  0  0  0
 30 31  2  0  0  0  0
 30 35  1  0  0  0  0
 31 32  1  0  0  0  0
 31 36  1  0  0  0  0
 32 33  2  0  0  0  0
 32 79  1  0  0  0  0
 33 34  1  0  0  0  0
 33 80  1  0  0  0  0
 34 35  2  0  0  0  0
 34 81  1  0  0  0  0
 35 82  1  0  0  0  0
 36 37  1  0  0  0  0
 36 43  1  0  0  0  0
 37 38  2  0  0  0  0
 37 42  1  0  0  0  0
 38 39  1  0  0  0  0
 38 83  1  0  0  0  0
 39 40  2  0  0  0  0
 39 84  1  0  0  0  0
 40 41  1  0  0  0  0
 40 85  1  0  0  0  0
 41 42  2  0  0  0  0
 41 86  1  0  0  0  0
 42 87  1  0  0  0  0
 43 44  2  0  0  0  0
 43 48  1  0  0  0  0
 44 45  1  0  0  0  0
 44 88  1  0  0  0  0
 45 46  2  0  0  0  0
 45 89  1  0  0  0  0
 46 47  1  0  0  0  0
 46 90  1  0  0  0  0
 47 48  2  0  0  0  0
 47 91  1  0  0  0  0
 48 92  1  0  0  0  0
M  END
$$$$
