Title Card Required
 OpenBabel03192317483D

 49 54  0  0  1  0  0  0  0  0999 V2000
   -1.7516    1.2748   -0.7256 C   0  0  2  0  0  0  0  0  0  0  0  0
   -2.6637    0.1864   -1.3624 C   0  0  1  0  0  0  0  0  0  0  0  0
   -1.9761   -1.0783   -1.0993 N   0  0  0  0  0  0  0  0  0  0  0  0
   -1.0399   -0.8004   -0.2928 C   0  0  0  0  0  0  0  0  0  0  0  0
   -0.8768    0.4873    0.0882 O   0  0  0  0  0  0  0  0  0  0  0  0
   -0.0896   -1.7789    0.3434 C   0  0  0  0  0  0  0  0  0  0  0  0
    1.2997   -1.4631   -0.1524 C   0  0  0  0  0  0  0  0  0  0  0  0
    1.6052   -0.7230   -1.1332 N   0  0  0  0  0  0  0  0  0  0  0  0
    3.0660   -0.7010   -1.1892 C   0  0  2  0  0  0  0  0  0  0  0  0
    3.5239   -1.7696   -0.1510 C   0  0  2  0  0  0  0  0  0  0  0  0
    2.2981   -2.0831    0.5237 O   0  0  0  0  0  0  0  0  0  0  0  0
   -0.1456   -1.6149    1.8714 C   0  0  0  0  0  0  0  0  0  0  0  0
   -0.4453   -3.2104   -0.0714 C   0  0  0  0  0  0  0  0  0  0  0  0
    4.5333   -1.1046    0.7933 C   0  0  0  0  0  0  0  0  0  0  0  0
    4.4193    0.3701    0.4834 C   0  0  0  0  0  0  0  0  0  0  0  0
    3.6285    0.5941   -0.6447 C   0  0  0  0  0  0  0  0  0  0  0  0
   -3.9560    0.3069   -0.5825 C   0  0  0  0  0  0  0  0  0  0  0  0
   -3.9259    1.4075    0.2771 C   0  0  0  0  0  0  0  0  0  0  0  0
   -2.6380    2.1842    0.1307 C   0  0  0  0  0  0  0  0  0  0  0  0
    4.9968    1.4452    1.1578 C   0  0  0  0  0  0  0  0  0  0  0  0
    4.7678    2.7395    0.6918 C   0  0  0  0  0  0  0  0  0  0  0  0
    3.9673    2.9593   -0.4333 C   0  0  0  0  0  0  0  0  0  0  0  0
    3.3881    1.8852   -1.1074 C   0  0  0  0  0  0  0  0  0  0  0  0
   -5.0535   -0.5502   -0.6099 C   0  0  0  0  0  0  0  0  0  0  0  0
   -6.1366   -0.2829    0.2270 C   0  0  0  0  0  0  0  0  0  0  0  0
   -6.1139    0.8228    1.0827 C   0  0  0  0  0  0  0  0  0  0  0  0
   -5.0087    1.6730    1.1137 C   0  0  0  0  0  0  0  0  0  0  0  0
   -1.1292    1.8223   -1.4475 H   0  0  0  0  0  0  0  0  0  0  0  0
   -2.8195    0.3154   -2.4436 H   0  0  0  0  0  0  0  0  0  0  0  0
    3.4099   -0.9018   -2.2147 H   0  0  0  0  0  0  0  0  0  0  0  0
    3.9037   -2.6990   -0.5973 H   0  0  0  0  0  0  0  0  0  0  0  0
   -1.1661   -1.8213    2.2238 H   0  0  0  0  0  0  0  0  0  0  0  0
    0.5476   -2.3211    2.3455 H   0  0  0  0  0  0  0  0  0  0  0  0
    0.1268   -0.5920    2.1624 H   0  0  0  0  0  0  0  0  0  0  0  0
   -1.4557   -3.4573    0.2800 H   0  0  0  0  0  0  0  0  0  0  0  0
   -0.4353   -3.3041   -1.1647 H   0  0  0  0  0  0  0  0  0  0  0  0
    0.2774   -3.9120    0.3664 H   0  0  0  0  0  0  0  0  0  0  0  0
    4.2949   -1.3448    1.8395 H   0  0  0  0  0  0  0  0  0  0  0  0
    5.5518   -1.4726    0.5947 H   0  0  0  0  0  0  0  0  0  0  0  0
   -2.1519    2.4027    1.0922 H   0  0  0  0  0  0  0  0  0  0  0  0
   -2.8122    3.1453   -0.3780 H   0  0  0  0  0  0  0  0  0  0  0  0
    5.6160    1.2777    2.0415 H   0  0  0  0  0  0  0  0  0  0  0  0
    5.2138    3.5886    1.2122 H   0  0  0  0  0  0  0  0  0  0  0  0
    3.7919    3.9786   -0.7810 H   0  0  0  0  0  0  0  0  0  0  0  0
    2.7460    2.0470   -1.9751 H   0  0  0  0  0  0  0  0  0  0  0  0
   -5.0535   -1.4213   -1.2675 H   0  0  0  0  0  0  0  0  0  0  0  0
   -7.0055   -0.9430    0.2203 H   0  0  0  0  0  0  0  0  0  0  0  0
   -6.9660    1.0192    1.7355 H   0  0  0  0  0  0  0  0  0  0  0  0
   -4.9912    2.5312    1.7887 H   0  0  0  0  0  0  0  0  0  0  0  0
  1  2  1  0  0  0  0
  1  5  1  0  0  0  0
  1 19  1  0  0  0  0
  1 28  1  6  0  0  0
  2  3  1  0  0  0  0
  2 17  1  0  0  0  0
  2 29  1  6  0  0  0
  3  4  2  0  0  0  0
  4  5  1  0  0  0  0
  4  6  1  0  0  0  0
  6  7  1  0  0  0  0
  6 12  1  0  0  0  0
  6 13  1  0  0  0  0
  7  8  2  0  0  0  0
  7 11  1  0  0  0  0
  8  9  1  0  0  0  0
  9 10  1  0  0  0  0
  9 16  1  0  0  0  0
  9 30  1  6  0  0  0
 10 11  1  0  0  0  0
 10 14  1  0  0  0  0
 10 31  1  6  0  0  0
 12 32  1  0  0  0  0
 12 33  1  0  0  0  0
 12 34  1  0  0  0  0
 13 35  1  0  0  0  0
 13 36  1  0  0  0  0
 13 37  1  0  0  0  0
 14 15  1  0  0  0  0
 14 38  1  0  0  0  0
 14 39  1  0  0  0  0
 15 16  2  0  0  0  0
 15 20  1  0  0  0  0
 16 23  1  0  0  0  0
 17 18  2  0  0  0  0
 17 24  1  0  0  0  0
 18 19  1  0  0  0  0
 18 27  1  0  0  0  0
 19 40  1  0  0  0  0
 19 41  1  0  0  0  0
 20 21  2  0  0  0  0
 20 42  1  0  0  0  0
 21 22  1  0  0  0  0
 21 43  1  0  0  0  0
 22 23  2  0  0  0  0
 22 44  1  0  0  0  0
 23 45  1  0  0  0  0
 24 25  2  0  0  0  0
 24 46  1  0  0  0  0
 25 26  1  0  0  0  0
 25 47  1  0  0  0  0
 26 27  2  0  0  0  0
 26 48  1  0  0  0  0
 27 49  1  0  0  0  0
M  END
$$$$
