Title Card Required
 OpenBabel03192317473D

 45 46  0  0  1  0  0  0  0  0999 V2000
    2.5873   -0.8427    1.2382 C   0  0  0  0  0  0  0  0  0  0  0  0
    3.0987   -0.6423   -0.2099 C   0  0  1  0  0  0  0  0  0  0  0  0
    2.0676   -1.2790   -1.0343 N   0  0  0  0  0  0  0  0  0  0  0  0
    1.2544   -1.8266   -0.2369 C   0  0  0  0  0  0  0  0  0  0  0  0
    1.4966   -1.7515    1.0913 O   0  0  0  0  0  0  0  0  0  0  0  0
    0.0107   -2.5611   -0.6086 C   0  0  0  0  0  0  0  0  0  0  0  0
   -1.2050   -1.7704   -0.2357 C   0  0  0  0  0  0  0  0  0  0  0  0
   -1.2344   -0.5693    0.1566 N   0  0  0  0  0  0  0  0  0  0  0  0
   -2.6396   -0.2374    0.4035 C   0  0  2  0  0  0  0  0  0  0  0  0
   -3.4069   -1.4859   -0.0978 C   0  0  0  0  0  0  0  0  0  0  0  0
   -2.3749   -2.4416   -0.3547 O   0  0  0  0  0  0  0  0  0  0  0  0
    3.2767    0.8214   -0.5950 C   0  0  0  0  0  0  0  0  0  0  0  0
   -3.0349    1.0558   -0.2985 C   0  0  0  0  0  0  0  0  0  0  0  0
   -4.4962    1.4760   -0.1122 C   0  0  0  0  0  0  0  0  0  0  0  0
    4.3180    1.5843    0.2294 C   0  0  0  0  0  0  0  0  0  0  0  0
   -4.8650    1.6541    1.3606 C   0  0  0  0  0  0  0  0  0  0  0  0
   -4.7716    2.7585   -0.8952 C   0  0  0  0  0  0  0  0  0  0  0  0
    5.7140    0.9734    0.1085 C   0  0  0  0  0  0  0  0  0  0  0  0
    4.3374    3.0541   -0.1867 C   0  0  0  0  0  0  0  0  0  0  0  0
    3.3255   -1.2757    1.9257 H   0  0  0  0  0  0  0  0  0  0  0  0
    2.1978    0.0952    1.6671 H   0  0  0  0  0  0  0  0  0  0  0  0
    4.0467   -1.1809   -0.3775 H   0  0  0  0  0  0  0  0  0  0  0  0
    0.0099   -2.7410   -1.6913 H   0  0  0  0  0  0  0  0  0  0  0  0
   -0.0334   -3.5314   -0.0929 H   0  0  0  0  0  0  0  0  0  0  0  0
   -2.7635   -0.1098    1.4918 H   0  0  0  0  0  0  0  0  0  0  0  0
   -4.1104   -1.9069    0.6321 H   0  0  0  0  0  0  0  0  0  0  0  0
   -3.9432   -1.2898   -1.0408 H   0  0  0  0  0  0  0  0  0  0  0  0
    3.5464    0.8680   -1.6634 H   0  0  0  0  0  0  0  0  0  0  0  0
    2.2928    1.3114   -0.4975 H   0  0  0  0  0  0  0  0  0  0  0  0
   -2.3720    1.8587    0.0647 H   0  0  0  0  0  0  0  0  0  0  0  0
   -2.8195    0.9361   -1.3741 H   0  0  0  0  0  0  0  0  0  0  0  0
   -5.1416    0.6826   -0.5320 H   0  0  0  0  0  0  0  0  0  0  0  0
    4.0168    1.5414    1.2923 H   0  0  0  0  0  0  0  0  0  0  0  0
   -4.1949    2.3864    1.8394 H   0  0  0  0  0  0  0  0  0  0  0  0
   -5.8954    2.0242    1.4638 H   0  0  0  0  0  0  0  0  0  0  0  0
   -4.7944    0.7134    1.9259 H   0  0  0  0  0  0  0  0  0  0  0  0
   -4.5283    2.6366   -1.9607 H   0  0  0  0  0  0  0  0  0  0  0  0
   -5.8275    3.0556   -0.8174 H   0  0  0  0  0  0  0  0  0  0  0  0
   -4.1581    3.5853   -0.5034 H   0  0  0  0  0  0  0  0  0  0  0  0
    6.0297    0.9426   -0.9471 H   0  0  0  0  0  0  0  0  0  0  0  0
    6.4523    1.5715    0.6624 H   0  0  0  0  0  0  0  0  0  0  0  0
    5.7576   -0.0522    0.5027 H   0  0  0  0  0  0  0  0  0  0  0  0
    3.3436    3.5129   -0.0797 H   0  0  0  0  0  0  0  0  0  0  0  0
    5.0486    3.6327    0.4207 H   0  0  0  0  0  0  0  0  0  0  0  0
    4.6393    3.1491   -1.2420 H   0  0  0  0  0  0  0  0  0  0  0  0
  1  2  1  0  0  0  0
  1  5  1  0  0  0  0
  1 20  1  0  0  0  0
  1 21  1  0  0  0  0
  2  3  1  0  0  0  0
  2 12  1  0  0  0  0
  2 22  1  6  0  0  0
  3  4  2  0  0  0  0
  4  5  1  0  0  0  0
  4  6  1  0  0  0  0
  6  7  1  0  0  0  0
  6 23  1  0  0  0  0
  6 24  1  0  0  0  0
  7  8  2  0  0  0  0
  7 11  1  0  0  0  0
  8  9  1  0  0  0  0
  9 10  1  0  0  0  0
  9 13  1  0  0  0  0
  9 25  1  1  0  0  0
 10 11  1  0  0  0  0
 10 26  1  0  0  0  0
 10 27  1  0  0  0  0
 12 15  1  0  0  0  0
 12 28  1  0  0  0  0
 12 29  1  0  0  0  0
 13 14  1  0  0  0  0
 13 30  1  0  0  0  0
 13 31  1  0  0  0  0
 14 16  1  0  0  0  0
 14 17  1  0  0  0  0
 14 32  1  0  0  0  0
 15 18  1  0  0  0  0
 15 19  1  0  0  0  0
 15 33  1  0  0  0  0
 16 34  1  0  0  0  0
 16 35  1  0  0  0  0
 16 36  1  0  0  0  0
 17 37  1  0  0  0  0
 17 38  1  0  0  0  0
 17 39  1  0  0  0  0
 18 40  1  0  0  0  0
 18 41  1  0  0  0  0
 18 42  1  0  0  0  0
 19 43  1  0  0  0  0
 19 44  1  0  0  0  0
 19 45  1  0  0  0  0
M  END
$$$$
