Title Card Required
 OpenBabel03192317533D

 45 47  0  0  1  0  0  0  0  0999 V2000
   -2.1899    2.8968    0.2495 C   0  0  0  0  0  0  0  0  0  0  0  0
   -1.6142    1.9767   -2.0037 C   0  0  0  0  0  0  0  0  0  0  0  0
    0.0525    3.3867   -0.7583 C   0  0  0  0  0  0  0  0  0  0  0  0
   -1.0621    2.3432   -0.6272 C   0  0  0  0  0  0  0  0  0  0  0  0
   -1.2904   -1.1780   -1.0804 C   0  0  0  0  0  0  0  0  0  0  0  0
   -1.5705   -0.4120    0.0506 C   0  0  0  0  0  0  0  0  0  0  0  0
    1.8640   -0.6961   -0.4894 C   0  0  0  0  0  0  0  0  0  0  0  0
    0.6760    0.0343   -1.0665 C   0  0  1  0  0  0  0  0  0  0  0  0
   -0.1750   -0.8542   -1.7745 O   0  0  0  0  0  0  0  0  0  0  0  0
   -0.3097    0.8830    0.3258 P   0  0  1  0  0  0  0  0  0  0  0  0
   -2.1167   -2.2242   -1.4939 C   0  0  0  0  0  0  0  0  0  0  0  0
   -3.2419   -2.4946   -0.7229 C   0  0  0  0  0  0  0  0  0  0  0  0
   -3.5491   -1.7570    0.4252 C   0  0  0  0  0  0  0  0  0  0  0  0
   -2.7060   -0.7080    0.8152 C   0  0  0  0  0  0  0  0  0  0  0  0
    1.0486    0.7961   -1.7672 H   0  0  0  0  0  0  0  0  0  0  0  0
    2.8337    0.1029   -0.0251 N   0  0  0  0  0  0  0  0  0  0  0  0
    3.8970   -0.4481    0.5234 C   0  0  0  0  0  0  0  0  0  0  0  0
    4.0712   -1.8413    0.6474 C   0  0  0  0  0  0  0  0  0  0  0  0
    3.0662   -2.6533    0.1591 C   0  0  0  0  0  0  0  0  0  0  0  0
    1.9291   -2.0812   -0.4292 C   0  0  0  0  0  0  0  0  0  0  0  0
    4.8761    0.3358    0.9938 O   0  0  0  0  0  0  0  0  0  0  0  0
    4.6927    1.7330    0.8876 C   0  0  0  0  0  0  0  0  0  0  0  0
   -2.9185    0.0754    1.8946 O   0  0  0  0  0  0  0  0  0  0  0  0
   -4.0391   -0.1797    2.7009 C   0  0  0  0  0  0  0  0  0  0  0  0
   -2.6136    3.8013   -0.2170 H   0  0  0  0  0  0  0  0  0  0  0  0
   -1.8257    3.1661    1.2527 H   0  0  0  0  0  0  0  0  0  0  0  0
   -2.9978    2.1601    0.3705 H   0  0  0  0  0  0  0  0  0  0  0  0
   -2.0338    2.8763   -2.4841 H   0  0  0  0  0  0  0  0  0  0  0  0
   -0.8389    1.5722   -2.6709 H   0  0  0  0  0  0  0  0  0  0  0  0
   -2.4187    1.2302   -1.9258 H   0  0  0  0  0  0  0  0  0  0  0  0
    0.4404    3.6831    0.2280 H   0  0  0  0  0  0  0  0  0  0  0  0
    0.8990    3.0118   -1.3549 H   0  0  0  0  0  0  0  0  0  0  0  0
   -0.3360    4.2880   -1.2598 H   0  0  0  0  0  0  0  0  0  0  0  0
   -1.8691   -2.7970   -2.3864 H   0  0  0  0  0  0  0  0  0  0  0  0
   -3.9058   -3.3094   -1.0164 H   0  0  0  0  0  0  0  0  0  0  0  0
   -4.4379   -2.0070    1.0011 H   0  0  0  0  0  0  0  0  0  0  0  0
    4.9755   -2.2284    1.1143 H   0  0  0  0  0  0  0  0  0  0  0  0
    3.1580   -3.7385    0.2311 H   0  0  0  0  0  0  0  0  0  0  0  0
    1.1222   -2.6900   -0.8330 H   0  0  0  0  0  0  0  0  0  0  0  0
    4.5875    2.0384   -0.1633 H   0  0  0  0  0  0  0  0  0  0  0  0
    3.7909    2.0539    1.4284 H   0  0  0  0  0  0  0  0  0  0  0  0
    5.5851    2.1903    1.3282 H   0  0  0  0  0  0  0  0  0  0  0  0
   -4.9777   -0.0672    2.1336 H   0  0  0  0  0  0  0  0  0  0  0  0
   -4.0001   -1.1929    3.1330 H   0  0  0  0  0  0  0  0  0  0  0  0
   -4.0163    0.5578    3.5107 H   0  0  0  0  0  0  0  0  0  0  0  0
  1  4  1  0  0  0  0
  1 25  1  0  0  0  0
  1 26  1  0  0  0  0
  1 27  1  0  0  0  0
  2  4  1  0  0  0  0
  2 28  1  0  0  0  0
  2 29  1  0  0  0  0
  2 30  1  0  0  0  0
  3  4  1  0  0  0  0
  3 31  1  0  0  0  0
  3 32  1  0  0  0  0
  3 33  1  0  0  0  0
  5  6  2  0  0  0  0
  5  9  1  0  0  0  0
  5 11  1  0  0  0  0
  6 10  1  0  0  0  0
  6 14  1  0  0  0  0
  7  8  1  0  0  0  0
  7 16  1  0  0  0  0
  7 20  2  0  0  0  0
  8  9  1  0  0  0  0
  8 10  1  0  0  0  0
  8 15  1  6  0  0  0
 10  4  1  6  0  0  0
 11 12  2  0  0  0  0
 11 34  1  0  0  0  0
 12 13  1  0  0  0  0
 12 35  1  0  0  0  0
 13 14  2  0  0  0  0
 13 36  1  0  0  0  0
 14 23  1  0  0  0  0
 16 17  2  0  0  0  0
 17 18  1  0  0  0  0
 17 21  1  0  0  0  0
 18 19  2  0  0  0  0
 18 37  1  0  0  0  0
 19 20  1  0  0  0  0
 19 38  1  0  0  0  0
 20 39  1  0  0  0  0
 21 22  1  0  0  0  0
 22 40  1  0  0  0  0
 22 41  1  0  0  0  0
 22 42  1  0  0  0  0
 23 24  1  0  0  0  0
 24 43  1  0  0  0  0
 24 44  1  0  0  0  0
 24 45  1  0  0  0  0
M  END
$$$$
