Title Card Required
 OpenBabel03192317513D

 63 64  0  0  1  0  0  0  0  0999 V2000
    2.5345    2.4854   -0.0359 C   0  0  0  0  0  0  0  0  0  0  0  0
    4.3301    1.4058    1.3819 C   0  0  0  0  0  0  0  0  0  0  0  0
    2.0729    1.8396    2.3352 C   0  0  0  0  0  0  0  0  0  0  0  0
    3.7521   -0.0626   -1.8591 C   0  0  0  0  0  0  0  0  0  0  0  0
    4.3990   -1.8236   -0.2239 C   0  0  0  0  0  0  0  0  0  0  0  0
    2.2596   -2.0406   -1.4855 C   0  0  0  0  0  0  0  0  0  0  0  0
   -5.5647    0.8868    0.3421 C   0  0  0  0  0  0  0  0  0  0  0  0
   -3.5820    2.0945    1.1464 C   0  0  0  0  0  0  0  0  0  0  0  0
    2.8300    1.4536    1.0529 C   0  0  0  0  0  0  0  0  0  0  0  0
   -1.3854   -1.6007    0.5530 C   0  0  0  0  0  0  0  0  0  0  0  0
   -2.0671   -2.8078    0.6737 C   0  0  0  0  0  0  0  0  0  0  0  0
   -3.4557   -2.7449    0.7334 C   0  0  0  0  0  0  0  0  0  0  0  0
   -4.1378   -1.5311    0.7008 C   0  0  0  0  0  0  0  0  0  0  0  0
   -3.4435   -0.3065    0.5918 C   0  0  0  0  0  0  0  0  0  0  0  0
    3.2108   -1.0433   -0.8141 C   0  0  0  0  0  0  0  0  0  0  0  0
   -2.0321   -0.3564    0.4981 C   0  0  0  0  0  0  0  0  0  0  0  0
    0.4619   -0.2758    0.5987 C   0  0  2  0  0  0  0  0  0  0  0  0
   -0.8319    0.9455   -0.0296 P   0  0  1  0  0  0  0  0  0  0  0  0
   -4.1367    0.8935    0.5524 N   0  0  0  0  0  0  0  0  0  0  0  0
    2.3362   -0.3119    0.6879 P   0  0  0  0  0  0  0  0  0  0  0  0
   -0.0343   -1.5937    0.4143 O   0  0  0  0  0  0  0  0  0  0  0  0
   -2.2185    1.6869   -2.2683 C   0  0  0  0  0  0  0  0  0  0  0  0
    0.2360    1.3233   -2.5659 C   0  0  0  0  0  0  0  0  0  0  0  0
   -1.3198   -0.6401   -2.4057 C   0  0  0  0  0  0  0  0  0  0  0  0
   -1.0321    0.7789   -1.9128 C   0  0  0  0  0  0  0  0  0  0  0  0
    2.6448   -1.1671    1.8848 O   0  0  0  0  0  0  0  0  0  0  0  0
    2.8804    3.4723    0.3127 H   0  0  0  0  0  0  0  0  0  0  0  0
    1.4552    2.5697   -0.2268 H   0  0  0  0  0  0  0  0  0  0  0  0
    3.0451    2.2731   -0.9835 H   0  0  0  0  0  0  0  0  0  0  0  0
    4.6419    2.3809    1.7878 H   0  0  0  0  0  0  0  0  0  0  0  0
    4.5303    0.6299    2.1348 H   0  0  0  0  0  0  0  0  0  0  0  0
    4.9476    1.2023    0.4952 H   0  0  0  0  0  0  0  0  0  0  0  0
    1.0040    2.0156    2.1395 H   0  0  0  0  0  0  0  0  0  0  0  0
    2.1810    1.0571    3.0998 H   0  0  0  0  0  0  0  0  0  0  0  0
    2.4938    2.7783    2.7287 H   0  0  0  0  0  0  0  0  0  0  0  0
    4.4815    0.6393   -1.4337 H   0  0  0  0  0  0  0  0  0  0  0  0
    4.2742   -0.6476   -2.6327 H   0  0  0  0  0  0  0  0  0  0  0  0
    2.9717    0.5162   -2.3669 H   0  0  0  0  0  0  0  0  0  0  0  0
    4.0595   -2.5449    0.5279 H   0  0  0  0  0  0  0  0  0  0  0  0
    4.9088   -2.3528   -1.0447 H   0  0  0  0  0  0  0  0  0  0  0  0
    5.1277   -1.1568    0.2590 H   0  0  0  0  0  0  0  0  0  0  0  0
    1.8433   -2.7512   -0.7588 H   0  0  0  0  0  0  0  0  0  0  0  0
    1.4227   -1.5313   -1.9828 H   0  0  0  0  0  0  0  0  0  0  0  0
    2.8176   -2.6027   -2.2511 H   0  0  0  0  0  0  0  0  0  0  0  0
   -6.1388    0.6069    1.2467 H   0  0  0  0  0  0  0  0  0  0  0  0
   -5.8851    1.8906    0.0325 H   0  0  0  0  0  0  0  0  0  0  0  0
   -5.8300    0.1888   -0.4637 H   0  0  0  0  0  0  0  0  0  0  0  0
   -2.7951    1.8402    1.8683 H   0  0  0  0  0  0  0  0  0  0  0  0
   -3.1454    2.7827    0.4016 H   0  0  0  0  0  0  0  0  0  0  0  0
   -4.3762    2.6305    1.6874 H   0  0  0  0  0  0  0  0  0  0  0  0
   -1.5150   -3.7452    0.7136 H   0  0  0  0  0  0  0  0  0  0  0  0
   -4.0294   -3.6681    0.8331 H   0  0  0  0  0  0  0  0  0  0  0  0
   -5.2218   -1.5342    0.7949 H   0  0  0  0  0  0  0  0  0  0  0  0
    0.3369   -0.0554    1.6800 H   0  0  0  0  0  0  0  0  0  0  0  0
   -2.0197    2.7342   -1.9923 H   0  0  0  0  0  0  0  0  0  0  0  0
   -2.3966    1.6496   -3.3555 H   0  0  0  0  0  0  0  0  0  0  0  0
   -3.1392    1.3606   -1.7595 H   0  0  0  0  0  0  0  0  0  0  0  0
    1.1072    0.7146   -2.2886 H   0  0  0  0  0  0  0  0  0  0  0  0
    0.1389    1.2953   -3.6635 H   0  0  0  0  0  0  0  0  0  0  0  0
    0.4351    2.3646   -2.2704 H   0  0  0  0  0  0  0  0  0  0  0  0
   -0.5673   -1.3593   -2.0568 H   0  0  0  0  0  0  0  0  0  0  0  0
   -2.3008   -0.9941   -2.0586 H   0  0  0  0  0  0  0  0  0  0  0  0
   -1.3262   -0.6500   -3.5083 H   0  0  0  0  0  0  0  0  0  0  0  0
  1  9  1  0  0  0  0
  1 27  1  0  0  0  0
  1 28  1  0  0  0  0
  1 29  1  0  0  0  0
  2  9  1  0  0  0  0
  2 30  1  0  0  0  0
  2 31  1  0  0  0  0
  2 32  1  0  0  0  0
  3  9  1  0  0  0  0
  3 33  1  0  0  0  0
  3 34  1  0  0  0  0
  3 35  1  0  0  0  0
  4 15  1  0  0  0  0
  4 36  1  0  0  0  0
  4 37  1  0  0  0  0
  4 38  1  0  0  0  0
  5 15  1  0  0  0  0
  5 39  1  0  0  0  0
  5 40  1  0  0  0  0
  5 41  1  0  0  0  0
  6 15  1  0  0  0  0
  6 42  1  0  0  0  0
  6 43  1  0  0  0  0
  6 44  1  0  0  0  0
  7 19  1  0  0  0  0
  7 45  1  0  0  0  0
  7 46  1  0  0  0  0
  7 47  1  0  0  0  0
  8 19  1  0  0  0  0
  8 48  1  0  0  0  0
  8 49  1  0  0  0  0
  8 50  1  0  0  0  0
  9 20  1  0  0  0  0
 10 11  2  0  0  0  0
 10 16  1  0  0  0  0
 10 21  1  0  0  0  0
 11 12  1  0  0  0  0
 11 51  1  0  0  0  0
 12 13  2  0  0  0  0
 12 52  1  0  0  0  0
 13 14  1  0  0  0  0
 13 53  1  0  0  0  0
 14 16  2  0  0  0  0
 14 19  1  0  0  0  0
 15 20  1  0  0  0  0
 16 18  1  0  0  0  0
 17 18  1  0  0  0  0
 17 20  1  0  0  0  0
 17 21  1  0  0  0  0
 17 54  1  1  0  0  0
 18 25  1  6  0  0  0
 20 26  2  0  0  0  0
 22 25  1  0  0  0  0
 22 55  1  0  0  0  0
 22 56  1  0  0  0  0
 22 57  1  0  0  0  0
 23 25  1  0  0  0  0
 23 58  1  0  0  0  0
 23 59  1  0  0  0  0
 23 60  1  0  0  0  0
 24 25  1  0  0  0  0
 24 61  1  0  0  0  0
 24 62  1  0  0  0  0
 24 63  1  0  0  0  0
M  END
$$$$
