Title Card Required
 OpenBabel03192317523D

 44 45  0  0  1  0  0  0  0  0999 V2000
    0.6174    0.1592    0.8025 C   0  0  1  0  0  0  0  0  0  0  0  0
   -0.6171   -0.7084    0.4658 C   0  0  1  0  0  0  0  0  0  0  0  0
    1.4373   -0.4355    1.8584 N   0  0  0  0  0  0  0  0  0  0  0  0
   -1.4054   -0.8679    1.6866 N   0  0  0  0  0  0  0  0  0  0  0  0
   -1.4693   -0.1750   -0.7022 C   0  0  0  0  0  0  0  0  0  0  0  0
   -1.9440    1.2842   -0.5687 C   0  0  0  0  0  0  0  0  0  0  0  0
   -3.1875    1.4625    0.3038 C   0  0  0  0  0  0  0  0  0  0  0  0
   -4.3364    0.6051   -0.2229 C   0  0  0  0  0  0  0  0  0  0  0  0
   -3.9417   -0.8697   -0.2454 C   0  0  0  0  0  0  0  0  0  0  0  0
   -2.6583   -1.0947   -1.0553 C   0  0  0  0  0  0  0  0  0  0  0  0
    1.4554    0.5619   -0.4300 C   0  0  0  0  0  0  0  0  0  0  0  0
    1.9926   -0.6004   -1.2866 C   0  0  0  0  0  0  0  0  0  0  0  0
    3.2584   -1.2574   -0.7312 C   0  0  0  0  0  0  0  0  0  0  0  0
    4.3571   -0.2177   -0.5190 C   0  0  0  0  0  0  0  0  0  0  0  0
    3.8856    0.8863    0.4256 C   0  0  0  0  0  0  0  0  0  0  0  0
    2.5960    1.5391   -0.0811 C   0  0  0  0  0  0  0  0  0  0  0  0
    0.2303    1.1017    1.2256 H   0  0  0  0  0  0  0  0  0  0  0  0
   -0.2173   -1.6890    0.1200 H   0  0  0  0  0  0  0  0  0  0  0  0
    1.5531   -1.4394    1.7287 H   0  0  0  0  0  0  0  0  0  0  0  0
    1.0425   -0.2800    2.7813 H   0  0  0  0  0  0  0  0  0  0  0  0
   -2.0866   -1.6133    1.5645 H   0  0  0  0  0  0  0  0  0  0  0  0
   -0.7923   -1.1834    2.4352 H   0  0  0  0  0  0  0  0  0  0  0  0
   -0.7983   -0.2171   -1.5744 H   0  0  0  0  0  0  0  0  0  0  0  0
   -1.1278    1.9263   -0.2046 H   0  0  0  0  0  0  0  0  0  0  0  0
   -2.1840    1.6485   -1.5837 H   0  0  0  0  0  0  0  0  0  0  0  0
   -2.9531    1.1678    1.3377 H   0  0  0  0  0  0  0  0  0  0  0  0
   -3.4793    2.5243    0.3156 H   0  0  0  0  0  0  0  0  0  0  0  0
   -5.2417    0.7475    0.3865 H   0  0  0  0  0  0  0  0  0  0  0  0
   -4.5903    0.9288   -1.2483 H   0  0  0  0  0  0  0  0  0  0  0  0
   -3.8253   -1.2113    0.7938 H   0  0  0  0  0  0  0  0  0  0  0  0
   -4.7505   -1.4771   -0.6806 H   0  0  0  0  0  0  0  0  0  0  0  0
   -2.9083   -0.9163   -2.1152 H   0  0  0  0  0  0  0  0  0  0  0  0
   -2.3408   -2.1501   -0.9944 H   0  0  0  0  0  0  0  0  0  0  0  0
    0.7618    1.1286   -1.0703 H   0  0  0  0  0  0  0  0  0  0  0  0
    1.2098   -1.3555   -1.4604 H   0  0  0  0  0  0  0  0  0  0  0  0
    2.2408   -0.1919   -2.2821 H   0  0  0  0  0  0  0  0  0  0  0  0
    3.0480   -1.7596    0.2264 H   0  0  0  0  0  0  0  0  0  0  0  0
    3.6002   -2.0399   -1.4264 H   0  0  0  0  0  0  0  0  0  0  0  0
    5.2694   -0.6938   -0.1284 H   0  0  0  0  0  0  0  0  0  0  0  0
    4.6240    0.2213   -1.4975 H   0  0  0  0  0  0  0  0  0  0  0  0
    3.7070    0.4574    1.4205 H   0  0  0  0  0  0  0  0  0  0  0  0
    4.6666    1.6560    0.5288 H   0  0  0  0  0  0  0  0  0  0  0  0
    2.8375    2.1059   -0.9976 H   0  0  0  0  0  0  0  0  0  0  0  0
    2.2314    2.2767    0.6523 H   0  0  0  0  0  0  0  0  0  0  0  0
  1  2  1  0  0  0  0
  1  3  1  0  0  0  0
  1 11  1  0  0  0  0
  1 17  1  1  0  0  0
  2  4  1  0  0  0  0
  2  5  1  0  0  0  0
  2 18  1  6  0  0  0
  3 19  1  0  0  0  0
  3 20  1  0  0  0  0
  4 21  1  0  0  0  0
  4 22  1  0  0  0  0
  5  6  1  0  0  0  0
  5 10  1  0  0  0  0
  5 23  1  0  0  0  0
  6  7  1  0  0  0  0
  6 24  1  0  0  0  0
  6 25  1  0  0  0  0
  7  8  1  0  0  0  0
  7 26  1  0  0  0  0
  7 27  1  0  0  0  0
  8  9  1  0  0  0  0
  8 28  1  0  0  0  0
  8 29  1  0  0  0  0
  9 10  1  0  0  0  0
  9 30  1  0  0  0  0
  9 31  1  0  0  0  0
 10 32  1  0  0  0  0
 10 33  1  0  0  0  0
 11 12  1  0  0  0  0
 11 16  1  0  0  0  0
 11 34  1  0  0  0  0
 12 13  1  0  0  0  0
 12 35  1  0  0  0  0
 12 36  1  0  0  0  0
 13 14  1  0  0  0  0
 13 37  1  0  0  0  0
 13 38  1  0  0  0  0
 14 15  1  0  0  0  0
 14 39  1  0  0  0  0
 14 40  1  0  0  0  0
 15 16  1  0  0  0  0
 15 41  1  0  0  0  0
 15 42  1  0  0  0  0
 16 43  1  0  0  0  0
 16 44  1  0  0  0  0
M  END
$$$$
