Title Card Required
 OpenBabel03192317543D

 35 37  0  0  1  0  0  0  0  0999 V2000
   -0.3460    2.6511   -0.0360 O   0  0  0  0  0  0  0  0  0  0  0  0
   -0.2445    1.3191   -0.1757 C   0  0  0  0  0  0  0  0  0  0  0  0
   -1.3021    0.6384   -0.3465 N   0  0  0  0  0  0  0  0  0  0  0  0
   -2.4183    1.5814   -0.3403 C   0  0  2  0  0  0  0  0  0  0  0  0
   -1.7432    2.9493   -0.0615 C   0  0  0  0  0  0  0  0  0  0  0  0
    1.1214    0.7366   -0.1297 C   0  0  0  0  0  0  0  0  0  0  0  0
    1.2694   -0.6361   -0.3532 C   0  0  0  0  0  0  0  0  0  0  0  0
    2.5487   -1.1754   -0.3041 C   0  0  0  0  0  0  0  0  0  0  0  0
    3.6138   -0.3203   -0.0359 C   0  0  0  0  0  0  0  0  0  0  0  0
    3.3577    1.0381    0.1712 C   0  0  0  0  0  0  0  0  0  0  0  0
    2.1391    1.5571    0.1254 N   0  0  0  0  0  0  0  0  0  0  0  0
    5.0316   -0.8196    0.0285 C   0  0  0  0  0  0  0  0  0  0  0  0
    5.0901   -2.1479   -0.0664 F   0  0  0  0  0  0  0  0  0  0  0  0
    5.7717   -0.3123   -0.9581 F   0  0  0  0  0  0  0  0  0  0  0  0
    5.6166   -0.4680    1.1745 F   0  0  0  0  0  0  0  0  0  0  0  0
   -3.4768    1.2074    0.7039 C   0  0  0  0  0  0  0  0  0  0  0  0
   -4.1815   -0.0900    0.3989 C   0  0  0  0  0  0  0  0  0  0  0  0
   -3.5772   -1.3173    0.6962 C   0  0  0  0  0  0  0  0  0  0  0  0
   -4.2152   -2.5163    0.3885 C   0  0  0  0  0  0  0  0  0  0  0  0
   -5.4675   -2.5079   -0.2263 C   0  0  0  0  0  0  0  0  0  0  0  0
   -6.0769   -1.2925   -0.5303 C   0  0  0  0  0  0  0  0  0  0  0  0
   -5.4360   -0.0935   -0.2184 C   0  0  0  0  0  0  0  0  0  0  0  0
   -2.8957    1.5595   -1.3342 H   0  0  0  0  0  0  0  0  0  0  0  0
   -1.9286    3.7016   -0.8389 H   0  0  0  0  0  0  0  0  0  0  0  0
   -2.0307    3.3656    0.9165 H   0  0  0  0  0  0  0  0  0  0  0  0
    0.3852   -1.2384   -0.5600 H   0  0  0  0  0  0  0  0  0  0  0  0
    2.7235   -2.2393   -0.4682 H   0  0  0  0  0  0  0  0  0  0  0  0
    4.1823    1.7258    0.3858 H   0  0  0  0  0  0  0  0  0  0  0  0
   -2.9793    1.1526    1.6857 H   0  0  0  0  0  0  0  0  0  0  0  0
   -4.2125    2.0254    0.7560 H   0  0  0  0  0  0  0  0  0  0  0  0
   -2.5924   -1.3234    1.1666 H   0  0  0  0  0  0  0  0  0  0  0  0
   -3.7323   -3.4646    0.6304 H   0  0  0  0  0  0  0  0  0  0  0  0
   -5.9682   -3.4474   -0.4652 H   0  0  0  0  0  0  0  0  0  0  0  0
   -7.0576   -1.2753   -1.0084 H   0  0  0  0  0  0  0  0  0  0  0  0
   -5.9225    0.8569   -0.4523 H   0  0  0  0  0  0  0  0  0  0  0  0
  1  2  1  0  0  0  0
  1  5  1  0  0  0  0
  2  3  2  0  0  0  0
  2  6  1  0  0  0  0
  3  4  1  0  0  0  0
  4  5  1  0  0  0  0
  4 16  1  0  0  0  0
  4 23  1  6  0  0  0
  5 24  1  0  0  0  0
  5 25  1  0  0  0  0
  6  7  2  0  0  0  0
  6 11  1  0  0  0  0
  7  8  1  0  0  0  0
  7 26  1  0  0  0  0
  8  9  2  0  0  0  0
  8 27  1  0  0  0  0
  9 10  1  0  0  0  0
  9 12  1  0  0  0  0
 10 11  2  0  0  0  0
 10 28  1  0  0  0  0
 12 13  1  0  0  0  0
 12 14  1  0  0  0  0
 12 15  1  0  0  0  0
 16 17  1  0  0  0  0
 16 29  1  0  0  0  0
 16 30  1  0  0  0  0
 17 18  2  0  0  0  0
 17 22  1  0  0  0  0
 18 19  1  0  0  0  0
 18 31  1  0  0  0  0
 19 20  2  0  0  0  0
 19 32  1  0  0  0  0
 20 21  1  0  0  0  0
 20 33  1  0  0  0  0
 21 22  2  0  0  0  0
 21 34  1  0  0  0  0
 22 35  1  0  0  0  0
M  END
$$$$
