Title Card Required
 OpenBabel03192317533D

 31 32  0  0  1  0  0  0  0  0999 V2000
    1.7811   -1.7022   -0.1185 O   0  0  0  0  0  0  0  0  0  0  0  0
    1.3255   -0.4438   -0.2324 C   0  0  0  0  0  0  0  0  0  0  0  0
    2.1608    0.4950   -0.4095 N   0  0  0  0  0  0  0  0  0  0  0  0
    3.4863   -0.1222   -0.4574 C   0  0  2  0  0  0  0  0  0  0  0  0
    3.2071   -1.6044   -0.1042 C   0  0  0  0  0  0  0  0  0  0  0  0
   -0.1453   -0.2491   -0.1547 C   0  0  0  0  0  0  0  0  0  0  0  0
   -0.6604    1.0407   -0.3215 C   0  0  0  0  0  0  0  0  0  0  0  0
   -2.0363    1.2142   -0.2418 C   0  0  0  0  0  0  0  0  0  0  0  0
   -2.8288    0.0954   -0.0023 C   0  0  0  0  0  0  0  0  0  0  0  0
   -2.2142   -1.1511    0.1472 C   0  0  0  0  0  0  0  0  0  0  0  0
   -0.9022   -1.3214    0.0733 N   0  0  0  0  0  0  0  0  0  0  0  0
   -4.3260    0.1951    0.1061 C   0  0  0  0  0  0  0  0  0  0  0  0
   -4.7497    1.4465   -0.0722 F   0  0  0  0  0  0  0  0  0  0  0  0
   -4.9319   -0.5716   -0.8012 F   0  0  0  0  0  0  0  0  0  0  0  0
   -4.7523   -0.2094    1.3042 F   0  0  0  0  0  0  0  0  0  0  0  0
    4.4890    0.5621    0.4749 C   0  0  0  0  0  0  0  0  0  0  0  0
    5.8498   -0.1255    0.3874 C   0  0  0  0  0  0  0  0  0  0  0  0
    4.5991    2.0500    0.1587 C   0  0  0  0  0  0  0  0  0  0  0  0
    3.8694   -0.0240   -1.4904 H   0  0  0  0  0  0  0  0  0  0  0  0
    3.6183   -2.3259   -0.8209 H   0  0  0  0  0  0  0  0  0  0  0  0
    3.5616   -1.8606    0.9078 H   0  0  0  0  0  0  0  0  0  0  0  0
    0.0267    1.8655   -0.5070 H   0  0  0  0  0  0  0  0  0  0  0  0
   -2.4924    2.1972   -0.3631 H   0  0  0  0  0  0  0  0  0  0  0  0
   -2.8202   -2.0432    0.3368 H   0  0  0  0  0  0  0  0  0  0  0  0
    4.0954    0.4481    1.5011 H   0  0  0  0  0  0  0  0  0  0  0  0
    6.2580   -0.0392   -0.6325 H   0  0  0  0  0  0  0  0  0  0  0  0
    6.5685    0.3414    1.0757 H   0  0  0  0  0  0  0  0  0  0  0  0
    5.7942   -1.1950    0.6404 H   0  0  0  0  0  0  0  0  0  0  0  0
    3.6175    2.5357    0.2252 H   0  0  0  0  0  0  0  0  0  0  0  0
    5.2912    2.5467    0.8539 H   0  0  0  0  0  0  0  0  0  0  0  0
    4.9835    2.1976   -0.8634 H   0  0  0  0  0  0  0  0  0  0  0  0
  1  2  1  0  0  0  0
  1  5  1  0  0  0  0
  2  3  2  0  0  0  0
  2  6  1  0  0  0  0
  3  4  1  0  0  0  0
  4  5  1  0  0  0  0
  4 16  1  0  0  0  0
  4 19  1  6  0  0  0
  5 20  1  0  0  0  0
  5 21  1  0  0  0  0
  6  7  2  0  0  0  0
  6 11  1  0  0  0  0
  7  8  1  0  0  0  0
  7 22  1  0  0  0  0
  8  9  2  0  0  0  0
  8 23  1  0  0  0  0
  9 10  1  0  0  0  0
  9 12  1  0  0  0  0
 10 11  2  0  0  0  0
 10 24  1  0  0  0  0
 12 13  1  0  0  0  0
 12 14  1  0  0  0  0
 12 15  1  0  0  0  0
 16 17  1  0  0  0  0
 16 18  1  0  0  0  0
 16 25  1  0  0  0  0
 17 26  1  0  0  0  0
 17 27  1  0  0  0  0
 17 28  1  0  0  0  0
 18 29  1  0  0  0  0
 18 30  1  0  0  0  0
 18 31  1  0  0  0  0
M  END
$$$$
