Title Card Required
 OpenBabel03192317443D

 25 26  0  0  1  0  0  0  0  0999 V2000
    2.6370   -1.3517   -0.0505 O   0  0  0  0  0  0  0  0  0  0  0  0
    2.0766   -0.1370   -0.1708 C   0  0  0  0  0  0  0  0  0  0  0  0
    2.8274    0.8713   -0.3435 N   0  0  0  0  0  0  0  0  0  0  0  0
    4.2061    0.3786   -0.3382 C   0  0  2  0  0  0  0  0  0  0  0  0
    4.0486   -1.1548   -0.1563 C   0  0  0  0  0  0  0  0  0  0  0  0
    0.5942   -0.0695   -0.0960 C   0  0  0  0  0  0  0  0  0  0  0  0
   -0.0256    1.1798   -0.2316 C   0  0  0  0  0  0  0  0  0  0  0  0
   -1.4094    1.2338   -0.1665 C   0  0  0  0  0  0  0  0  0  0  0  0
   -2.1097    0.0434    0.0308 C   0  0  0  0  0  0  0  0  0  0  0  0
   -1.3960   -1.1478    0.1624 C   0  0  0  0  0  0  0  0  0  0  0  0
   -0.0704   -1.2043    0.0991 N   0  0  0  0  0  0  0  0  0  0  0  0
   -3.6131    0.0477    0.0601 C   0  0  0  0  0  0  0  0  0  0  0  0
   -4.0816    1.1178    0.7048 F   0  0  0  0  0  0  0  0  0  0  0  0
   -4.1242    0.0815   -1.1726 F   0  0  0  0  0  0  0  0  0  0  0  0
   -4.0988   -1.0375    0.6614 F   0  0  0  0  0  0  0  0  0  0  0  0
    5.0206    1.0475    0.7603 C   0  0  0  0  0  0  0  0  0  0  0  0
    4.6609    0.6146   -1.3136 H   0  0  0  0  0  0  0  0  0  0  0  0
    4.4200   -1.7390   -1.0090 H   0  0  0  0  0  0  0  0  0  0  0  0
    4.5241   -1.5241    0.7646 H   0  0  0  0  0  0  0  0  0  0  0  0
    0.5925    2.0643   -0.3818 H   0  0  0  0  0  0  0  0  0  0  0  0
   -1.9433    2.1810   -0.2609 H   0  0  0  0  0  0  0  0  0  0  0  0
   -1.9259   -2.0895    0.3305 H   0  0  0  0  0  0  0  0  0  0  0  0
    6.0579    0.6825    0.7543 H   0  0  0  0  0  0  0  0  0  0  0  0
    5.0298    2.1360    0.6187 H   0  0  0  0  0  0  0  0  0  0  0  0
    4.5779    0.8312    1.7438 H   0  0  0  0  0  0  0  0  0  0  0  0
  1  2  1  0  0  0  0
  1  5  1  0  0  0  0
  2  3  2  0  0  0  0
  2  6  1  0  0  0  0
  3  4  1  0  0  0  0
  4  5  1  0  0  0  0
  4 16  1  0  0  0  0
  4 17  1  6  0  0  0
  5 18  1  0  0  0  0
  5 19  1  0  0  0  0
  6  7  2  0  0  0  0
  6 11  1  0  0  0  0
  7  8  1  0  0  0  0
  7 20  1  0  0  0  0
  8  9  2  0  0  0  0
  8 21  1  0  0  0  0
  9 10  1  0  0  0  0
  9 12  1  0  0  0  0
 10 11  2  0  0  0  0
 10 22  1  0  0  0  0
 12 13  1  0  0  0  0
 12 14  1  0  0  0  0
 12 15  1  0  0  0  0
 16 23  1  0  0  0  0
 16 24  1  0  0  0  0
 16 25  1  0  0  0  0
M  END
$$$$
