Title Card Required
 OpenBabel03192317503D

 50 54  0  0  0  0  0  0  0  0999 V2000
   -2.7452    0.0963   -1.3669 C   0  0  0  0  0  0  0  0  0  0  0  0
   -2.8182   -0.3731   -2.6769 C   0  0  0  0  0  0  0  0  0  0  0  0
   -1.6269   -0.6815   -3.3299 C   0  0  0  0  0  0  0  0  0  0  0  0
   -0.3956   -0.5259   -2.6929 C   0  0  0  0  0  0  0  0  0  0  0  0
   -0.3256   -0.0718   -1.3677 C   0  0  0  0  0  0  0  0  0  0  0  0
   -1.5193    0.2329   -0.6969 C   0  0  0  0  0  0  0  0  0  0  0  0
    1.0050    0.0813   -0.7057 C   0  0  0  0  0  0  0  0  0  0  0  0
    1.4801    1.3671   -0.3655 C   0  0  0  0  0  0  0  0  0  0  0  0
    2.7506    1.5035    0.2946 C   0  0  0  0  0  0  0  0  0  0  0  0
    1.7914   -1.0611   -0.4365 C   0  0  0  0  0  0  0  0  0  0  0  0
    3.0660   -0.9099    0.2128 C   0  0  0  0  0  0  0  0  0  0  0  0
    3.8522   -2.0744    0.4946 C   0  0  0  0  0  0  0  0  0  0  0  0
    3.4069   -3.3211    0.1644 C   0  0  0  0  0  0  0  0  0  0  0  0
    2.1355   -3.4792   -0.4644 C   0  0  0  0  0  0  0  0  0  0  0  0
    1.3575   -2.3936   -0.7526 C   0  0  0  0  0  0  0  0  0  0  0  0
    3.5107    0.3649    0.5690 C   0  0  0  0  0  0  0  0  0  0  0  0
   -1.7859    0.8430    1.0201 P   0  0  1  0  0  0  0  0  0  0  0  0
   -3.5619    1.1710    0.4932 C   0  0  0  0  0  0  0  0  0  0  0  0
   -3.8616    0.4338   -0.6874 O   0  0  0  0  0  0  0  0  0  0  0  0
    0.7530    2.5658   -0.6734 C   0  0  0  0  0  0  0  0  0  0  0  0
    1.2367    3.7946   -0.3247 C   0  0  0  0  0  0  0  0  0  0  0  0
    2.4844    3.9222    0.3565 C   0  0  0  0  0  0  0  0  0  0  0  0
    3.2180    2.8105    0.6504 C   0  0  0  0  0  0  0  0  0  0  0  0
   -1.9978   -0.7713    1.9978 C   0  0  0  0  0  0  0  0  0  0  0  0
   -0.5972   -1.3558    2.2012 C   0  0  0  0  0  0  0  0  0  0  0  0
   -2.5839   -0.3677    3.3553 C   0  0  0  0  0  0  0  0  0  0  0  0
   -2.8957   -1.8036    1.3180 C   0  0  0  0  0  0  0  0  0  0  0  0
   -3.7895   -0.4741   -3.1605 H   0  0  0  0  0  0  0  0  0  0  0  0
   -1.6577   -1.0364   -4.3615 H   0  0  0  0  0  0  0  0  0  0  0  0
    0.5302   -0.7559   -3.2227 H   0  0  0  0  0  0  0  0  0  0  0  0
    4.8189   -1.9375    0.9837 H   0  0  0  0  0  0  0  0  0  0  0  0
    4.0139   -4.2000    0.3862 H   0  0  0  0  0  0  0  0  0  0  0  0
    1.7805   -4.4807   -0.7122 H   0  0  0  0  0  0  0  0  0  0  0  0
    0.3830   -2.5343   -1.2210 H   0  0  0  0  0  0  0  0  0  0  0  0
    4.4764    0.4746    1.0688 H   0  0  0  0  0  0  0  0  0  0  0  0
   -4.2843    0.8926    1.2729 H   0  0  0  0  0  0  0  0  0  0  0  0
   -3.6814    2.2460    0.2783 H   0  0  0  0  0  0  0  0  0  0  0  0
   -0.1972    2.4833   -1.2015 H   0  0  0  0  0  0  0  0  0  0  0  0
    0.6667    4.6911   -0.5728 H   0  0  0  0  0  0  0  0  0  0  0  0
    2.8500    4.9125    0.6320 H   0  0  0  0  0  0  0  0  0  0  0  0
    4.1802    2.8944    1.1600 H   0  0  0  0  0  0  0  0  0  0  0  0
    0.1004   -0.6137    2.6206 H   0  0  0  0  0  0  0  0  0  0  0  0
   -0.6480   -2.2102    2.8958 H   0  0  0  0  0  0  0  0  0  0  0  0
   -0.1758   -1.7214    1.2546 H   0  0  0  0  0  0  0  0  0  0  0  0
   -3.5929    0.0627    3.2587 H   0  0  0  0  0  0  0  0  0  0  0  0
   -2.6649   -1.2567    4.0013 H   0  0  0  0  0  0  0  0  0  0  0  0
   -1.9440    0.3675    3.8663 H   0  0  0  0  0  0  0  0  0  0  0  0
   -3.9212   -1.4328    1.1736 H   0  0  0  0  0  0  0  0  0  0  0  0
   -2.4970   -2.0938    0.3342 H   0  0  0  0  0  0  0  0  0  0  0  0
   -2.9496   -2.7123    1.9407 H   0  0  0  0  0  0  0  0  0  0  0  0
  1  2  2  0  0  0  0
  1  6  1  0  0  0  0
  1 19  1  0  0  0  0
  2  3  1  0  0  0  0
  2 28  1  0  0  0  0
  3  4  2  0  0  0  0
  3 29  1  0  0  0  0
  4  5  1  0  0  0  0
  4 30  1  0  0  0  0
  5  6  2  0  0  0  0
  5  7  1  0  0  0  0
  6 17  1  0  0  0  0
  7  8  2  0  0  0  0
  7 10  1  0  0  0  0
  8  9  1  0  0  0  0
  8 20  1  0  0  0  0
  9 16  2  0  0  0  0
  9 23  1  0  0  0  0
 10 11  2  0  0  0  0
 10 15  1  0  0  0  0
 11 12  1  0  0  0  0
 11 16  1  0  0  0  0
 12 13  2  0  0  0  0
 12 31  1  0  0  0  0
 13 14  1  0  0  0  0
 13 32  1  0  0  0  0
 14 15  2  0  0  0  0
 14 33  1  0  0  0  0
 15 34  1  0  0  0  0
 16 35  1  0  0  0  0
 17 18  1  0  0  0  0
 17 24  1  1  0  0  0
 18 19  1  0  0  0  0
 18 36  1  0  0  0  0
 18 37  1  0  0  0  0
 20 21  2  0  0  0  0
 20 38  1  0  0  0  0
 21 22  1  0  0  0  0
 21 39  1  0  0  0  0
 22 23  2  0  0  0  0
 22 40  1  0  0  0  0
 23 41  1  0  0  0  0
 24 25  1  0  0  0  0
 24 26  1  0  0  0  0
 24 27  1  0  0  0  0
 25 42  1  0  0  0  0
 25 43  1  0  0  0  0
 25 44  1  0  0  0  0
 26 45  1  0  0  0  0
 26 46  1  0  0  0  0
 26 47  1  0  0  0  0
 27 48  1  0  0  0  0
 27 49  1  0  0  0  0
 27 50  1  0  0  0  0
M  END
$$$$
