Title Card Required
 OpenBabel03192317503D

 38 40  0  0  1  0  0  0  0  0999 V2000
    1.3215   -0.6979   -0.2945 C   0  0  0  0  0  0  0  0  0  0  0  0
    1.5642    0.6655   -0.0209 C   0  0  0  0  0  0  0  0  0  0  0  0
    2.8662    1.1449   -0.1811 C   0  0  0  0  0  0  0  0  0  0  0  0
    3.8759    0.2810   -0.5816 C   0  0  0  0  0  0  0  0  0  0  0  0
    3.5393   -1.0543   -0.8044 C   0  0  0  0  0  0  0  0  0  0  0  0
    2.3065   -1.5188   -0.6630 N   0  0  0  0  0  0  0  0  0  0  0  0
   -0.0193   -1.3543   -0.1721 C   0  0  0  0  0  0  0  0  0  0  0  0
   -1.1665   -0.7944   -0.7680 C   0  0  0  0  0  0  0  0  0  0  0  0
   -2.3754   -1.4831   -0.6761 C   0  0  0  0  0  0  0  0  0  0  0  0
   -2.4035   -2.6831    0.0271 C   0  0  0  0  0  0  0  0  0  0  0  0
   -1.2220   -3.1442    0.6085 C   0  0  0  0  0  0  0  0  0  0  0  0
   -0.0636   -2.5011    0.4996 N   0  0  0  0  0  0  0  0  0  0  0  0
   -1.0353    0.3970   -1.3799 O   0  0  0  0  0  0  0  0  0  0  0  0
    0.6171    1.5700    0.3415 O   0  0  0  0  0  0  0  0  0  0  0  0
   -1.9895    1.4244   -1.1158 C   0  0  1  0  0  0  0  0  0  0  0  0
   -2.3649    1.6151    0.3827 C   0  0  0  0  0  0  0  0  0  0  0  0
   -1.4825    1.0560    1.5100 C   0  0  0  0  0  0  0  0  0  0  0  0
   -0.0430    1.5558    1.6118 C   0  0  1  0  0  0  0  0  0  0  0  0
   -1.4136    2.6793   -1.7473 C   0  0  0  0  0  0  0  0  0  0  0  0
    0.7366    0.7918    2.6701 C   0  0  0  0  0  0  0  0  0  0  0  0
    3.0505    2.2013    0.0212 H   0  0  0  0  0  0  0  0  0  0  0  0
    4.9005    0.6300   -0.7132 H   0  0  0  0  0  0  0  0  0  0  0  0
    4.3004   -1.7754   -1.1177 H   0  0  0  0  0  0  0  0  0  0  0  0
   -3.2743   -1.0754   -1.1415 H   0  0  0  0  0  0  0  0  0  0  0  0
   -3.3286   -3.2518    0.1280 H   0  0  0  0  0  0  0  0  0  0  0  0
   -1.2143   -4.0713    1.1887 H   0  0  0  0  0  0  0  0  0  0  0  0
   -2.9202    1.1702   -1.6551 H   0  0  0  0  0  0  0  0  0  0  0  0
   -2.4830    2.7001    0.5380 H   0  0  0  0  0  0  0  0  0  0  0  0
   -3.3663    1.1871    0.5441 H   0  0  0  0  0  0  0  0  0  0  0  0
   -1.9698    1.3435    2.4565 H   0  0  0  0  0  0  0  0  0  0  0  0
   -1.4914   -0.0420    1.5068 H   0  0  0  0  0  0  0  0  0  0  0  0
   -0.0765    2.6224    1.8913 H   0  0  0  0  0  0  0  0  0  0  0  0
   -1.1606    2.4829   -2.7977 H   0  0  0  0  0  0  0  0  0  0  0  0
   -2.1474    3.4958   -1.7073 H   0  0  0  0  0  0  0  0  0  0  0  0
   -0.5015    2.9741   -1.2128 H   0  0  0  0  0  0  0  0  0  0  0  0
    0.7631   -0.2849    2.4426 H   0  0  0  0  0  0  0  0  0  0  0  0
    1.7699    1.1582    2.7398 H   0  0  0  0  0  0  0  0  0  0  0  0
    0.2528    0.9238    3.6477 H   0  0  0  0  0  0  0  0  0  0  0  0
  1  2  2  0  0  0  0
  1  6  1  0  0  0  0
  1  7  1  0  0  0  0
  2  3  1  0  0  0  0
  2 14  1  0  0  0  0
  3  4  2  0  0  0  0
  3 21  1  0  0  0  0
  4  5  1  0  0  0  0
  4 22  1  0  0  0  0
  5  6  2  0  0  0  0
  5 23  1  0  0  0  0
  7  8  2  0  0  0  0
  7 12  1  0  0  0  0
  8  9  1  0  0  0  0
  8 13  1  0  0  0  0
  9 10  2  0  0  0  0
  9 24  1  0  0  0  0
 10 11  1  0  0  0  0
 10 25  1  0  0  0  0
 11 12  2  0  0  0  0
 11 26  1  0  0  0  0
 13 15  1  0  0  0  0
 14 18  1  0  0  0  0
 15 16  1  0  0  0  0
 15 19  1  0  0  0  0
 15 27  1  6  0  0  0
 16 17  1  0  0  0  0
 16 28  1  0  0  0  0
 16 29  1  0  0  0  0
 17 18  1  0  0  0  0
 17 30  1  0  0  0  0
 17 31  1  0  0  0  0
 18 20  1  0  0  0  0
 18 32  1  1  0  0  0
 19 33  1  0  0  0  0
 19 34  1  0  0  0  0
 19 35  1  0  0  0  0
 20 36  1  0  0  0  0
 20 37  1  0  0  0  0
 20 38  1  0  0  0  0
M  END
$$$$
