Title Card Required
 OpenBabel03192317453D

 33 34  0  0  1  0  0  0  0  0999 V2000
   -2.9911   -0.3080    1.0999 C   0  0  0  0  0  0  0  0  0  0  0  0
   -3.1236   -0.5198   -0.4304 C   0  0  1  0  0  0  0  0  0  0  0  0
   -1.9685    0.1906   -0.9832 N   0  0  0  0  0  0  0  0  0  0  0  0
   -1.2792    0.5928   -0.0064 C   0  0  0  0  0  0  0  0  0  0  0  0
   -1.7449    0.3722    1.2429 O   0  0  0  0  0  0  0  0  0  0  0  0
    0.0604    1.2899   -0.1044 C   0  0  0  0  0  0  0  0  0  0  0  0
    1.1238    0.2179   -0.1359 C   0  0  0  0  0  0  0  0  0  0  0  0
    2.1758    0.2471   -0.8074 N   0  0  0  0  0  0  0  0  0  0  0  0
    2.9488   -0.9468   -0.4574 C   0  0  2  0  0  0  0  0  0  0  0  0
    2.0308   -1.7074    0.5317 C   0  0  0  0  0  0  0  0  0  0  0  0
    0.9096   -0.8382    0.6851 O   0  0  0  0  0  0  0  0  0  0  0  0
   -3.0867   -1.9861   -0.8406 C   0  0  0  0  0  0  0  0  0  0  0  0
    4.2976   -0.5624    0.1343 C   0  0  0  0  0  0  0  0  0  0  0  0
    0.1265    2.1140   -1.3893 C   0  0  0  0  0  0  0  0  0  0  0  0
    0.3081    2.1631    1.1361 C   0  0  0  0  0  0  0  0  0  0  0  0
   -3.7864    0.3195    1.5265 H   0  0  0  0  0  0  0  0  0  0  0  0
   -2.9421   -1.2541    1.6586 H   0  0  0  0  0  0  0  0  0  0  0  0
   -4.0451   -0.0579   -0.8178 H   0  0  0  0  0  0  0  0  0  0  0  0
    3.1139   -1.5356   -1.3734 H   0  0  0  0  0  0  0  0  0  0  0  0
    1.6780   -2.6748    0.1485 H   0  0  0  0  0  0  0  0  0  0  0  0
    2.4979   -1.8610    1.5158 H   0  0  0  0  0  0  0  0  0  0  0  0
   -3.9518   -2.5309   -0.4346 H   0  0  0  0  0  0  0  0  0  0  0  0
   -3.0926   -2.0760   -1.9347 H   0  0  0  0  0  0  0  0  0  0  0  0
   -2.1654   -2.4529   -0.4605 H   0  0  0  0  0  0  0  0  0  0  0  0
    4.8849   -1.4566    0.3902 H   0  0  0  0  0  0  0  0  0  0  0  0
    4.8690    0.0418   -0.5823 H   0  0  0  0  0  0  0  0  0  0  0  0
    4.1516    0.0336    1.0476 H   0  0  0  0  0  0  0  0  0  0  0  0
   -0.6070    2.9307   -1.3430 H   0  0  0  0  0  0  0  0  0  0  0  0
    1.1354    2.5277   -1.5079 H   0  0  0  0  0  0  0  0  0  0  0  0
   -0.1058    1.4843   -2.2560 H   0  0  0  0  0  0  0  0  0  0  0  0
   -0.4767    2.9275    1.2232 H   0  0  0  0  0  0  0  0  0  0  0  0
    0.3000    1.5540    2.0486 H   0  0  0  0  0  0  0  0  0  0  0  0
    1.2819    2.6617    1.0365 H   0  0  0  0  0  0  0  0  0  0  0  0
  1  2  1  0  0  0  0
  1  5  1  0  0  0  0
  1 16  1  0  0  0  0
  1 17  1  0  0  0  0
  2  3  1  0  0  0  0
  2 12  1  0  0  0  0
  2 18  1  6  0  0  0
  3  4  2  0  0  0  0
  4  5  1  0  0  0  0
  4  6  1  0  0  0  0
  6  7  1  0  0  0  0
  6 14  1  0  0  0  0
  6 15  1  0  0  0  0
  7  8  2  0  0  0  0
  7 11  1  0  0  0  0
  8  9  1  0  0  0  0
  9 10  1  0  0  0  0
  9 13  1  0  0  0  0
  9 19  1  6  0  0  0
 10 11  1  0  0  0  0
 10 20  1  0  0  0  0
 10 21  1  0  0  0  0
 12 22  1  0  0  0  0
 12 23  1  0  0  0  0
 12 24  1  0  0  0  0
 13 25  1  0  0  0  0
 13 26  1  0  0  0  0
 13 27  1  0  0  0  0
 14 28  1  0  0  0  0
 14 29  1  0  0  0  0
 14 30  1  0  0  0  0
 15 31  1  0  0  0  0
 15 32  1  0  0  0  0
 15 33  1  0  0  0  0
M  END
$$$$
