Title Card Required
 OpenBabel03192317433D

 53 59  0  0  1  0  0  0  0  0999 V2000
   -0.0675    1.9717    0.0652 C   0  0  0  0  0  0  0  0  0  0  0  0
   -0.8010    2.5262   -1.1722 C   0  0  0  0  0  0  0  0  0  0  0  0
   -2.1448    2.9859   -0.5961 C   0  0  0  0  0  0  0  0  0  0  0  0
   -1.8345    3.4671    0.8435 C   0  0  0  0  0  0  0  0  0  0  0  0
   -0.3925    3.0079    1.1506 C   0  0  0  0  0  0  0  0  0  0  0  0
   -0.3076   -0.3783   -0.4138 O   0  0  0  0  0  0  0  0  0  0  0  0
   -0.6550    0.6304    0.4222 C   0  0  0  0  0  0  0  0  0  0  0  0
   -1.4357    0.3739    1.3857 N   0  0  0  0  0  0  0  0  0  0  0  0
   -1.8087   -1.0335    1.2373 C   0  0  2  0  0  0  0  0  0  0  0  0
   -0.8670   -1.5832    0.1253 C   0  0  1  0  0  0  0  0  0  0  0  0
   -1.7384   -2.3012   -0.9112 C   0  0  0  0  0  0  0  0  0  0  0  0
   -3.1445   -1.8530   -0.5851 C   0  0  0  0  0  0  0  0  0  0  0  0
   -4.3124   -2.0442   -1.3221 C   0  0  0  0  0  0  0  0  0  0  0  0
   -5.5176   -1.5502   -0.8227 C   0  0  0  0  0  0  0  0  0  0  0  0
   -5.5571   -0.8695    0.3980 C   0  0  0  0  0  0  0  0  0  0  0  0
   -4.3898   -0.6760    1.1356 C   0  0  0  0  0  0  0  0  0  0  0  0
   -3.1905   -1.1794    0.6373 C   0  0  0  0  0  0  0  0  0  0  0  0
    1.7983    1.5180   -1.4110 O   0  0  0  0  0  0  0  0  0  0  0  0
    1.4034    1.7370   -0.1364 C   0  0  0  0  0  0  0  0  0  0  0  0
    2.2638    1.6511    0.7895 N   0  0  0  0  0  0  0  0  0  0  0  0
    3.4948    1.1814    0.1546 C   0  0  2  0  0  0  0  0  0  0  0  0
    3.1989    1.2213   -1.3769 C   0  0  1  0  0  0  0  0  0  0  0  0
    3.4805   -0.1758   -1.9484 C   0  0  0  0  0  0  0  0  0  0  0  0
    3.6628   -1.0491   -0.7295 C   0  0  0  0  0  0  0  0  0  0  0  0
    3.7880   -2.4367   -0.6665 C   0  0  0  0  0  0  0  0  0  0  0  0
    3.9539   -3.0472    0.5769 C   0  0  0  0  0  0  0  0  0  0  0  0
    3.9924   -2.2814    1.7465 C   0  0  0  0  0  0  0  0  0  0  0  0
    3.8671   -0.8942    1.6846 C   0  0  0  0  0  0  0  0  0  0  0  0
    3.7122   -0.2890    0.4400 C   0  0  0  0  0  0  0  0  0  0  0  0
   -0.2179    3.3759   -1.5602 H   0  0  0  0  0  0  0  0  0  0  0  0
   -0.8846    1.7828   -1.9758 H   0  0  0  0  0  0  0  0  0  0  0  0
   -2.6160    3.7610   -1.2154 H   0  0  0  0  0  0  0  0  0  0  0  0
   -2.8376    2.1319   -0.5621 H   0  0  0  0  0  0  0  0  0  0  0  0
   -1.9217    4.5588    0.9335 H   0  0  0  0  0  0  0  0  0  0  0  0
   -2.5386    3.0199    1.5564 H   0  0  0  0  0  0  0  0  0  0  0  0
   -0.2746    2.5824    2.1537 H   0  0  0  0  0  0  0  0  0  0  0  0
    0.3211    3.8377    1.0475 H   0  0  0  0  0  0  0  0  0  0  0  0
   -1.7144   -1.5562    2.2004 H   0  0  0  0  0  0  0  0  0  0  0  0
   -0.0338   -2.1971    0.4951 H   0  0  0  0  0  0  0  0  0  0  0  0
   -1.4237   -2.0337   -1.9301 H   0  0  0  0  0  0  0  0  0  0  0  0
   -1.6391   -3.3933   -0.8103 H   0  0  0  0  0  0  0  0  0  0  0  0
   -4.2856   -2.5690   -2.2793 H   0  0  0  0  0  0  0  0  0  0  0  0
   -6.4379   -1.6914   -1.3919 H   0  0  0  0  0  0  0  0  0  0  0  0
   -6.5068   -0.4825    0.7709 H   0  0  0  0  0  0  0  0  0  0  0  0
   -4.4058   -0.1290    2.0800 H   0  0  0  0  0  0  0  0  0  0  0  0
    4.3521    1.7979    0.4632 H   0  0  0  0  0  0  0  0  0  0  0  0
    3.7233    2.0203   -1.9185 H   0  0  0  0  0  0  0  0  0  0  0  0
    2.6410   -0.4977   -2.5809 H   0  0  0  0  0  0  0  0  0  0  0  0
    4.3872   -0.1707   -2.5733 H   0  0  0  0  0  0  0  0  0  0  0  0
    3.7531   -3.0394   -1.5765 H   0  0  0  0  0  0  0  0  0  0  0  0
    4.0520   -4.1324    0.6378 H   0  0  0  0  0  0  0  0  0  0  0  0
    4.1163   -2.7741    2.7122 H   0  0  0  0  0  0  0  0  0  0  0  0
    3.8741   -0.2875    2.5919 H   0  0  0  0  0  0  0  0  0  0  0  0
  1  2  1  0  0  0  0
  1  5  1  0  0  0  0
  1  7  1  0  0  0  0
  1 19  1  0  0  0  0
  2  3  1  0  0  0  0
  2 30  1  0  0  0  0
  2 31  1  0  0  0  0
  3  4  1  0  0  0  0
  3 32  1  0  0  0  0
  3 33  1  0  0  0  0
  4  5  1  0  0  0  0
  4 34  1  0  0  0  0
  4 35  1  0  0  0  0
  5 36  1  0  0  0  0
  5 37  1  0  0  0  0
  6  7  1  0  0  0  0
  6 10  1  0  0  0  0
  7  8  2  0  0  0  0
  8  9  1  0  0  0  0
  9 10  1  0  0  0  0
  9 17  1  0  0  0  0
  9 38  1  1  0  0  0
 10 11  1  0  0  0  0
 10 39  1  1  0  0  0
 11 12  1  0  0  0  0
 11 40  1  0  0  0  0
 11 41  1  0  0  0  0
 12 13  2  0  0  0  0
 12 17  1  0  0  0  0
 13 14  1  0  0  0  0
 13 42  1  0  0  0  0
 14 15  2  0  0  0  0
 14 43  1  0  0  0  0
 15 16  1  0  0  0  0
 15 44  1  0  0  0  0
 16 17  2  0  0  0  0
 16 45  1  0  0  0  0
 18 19  1  0  0  0  0
 18 22  1  0  0  0  0
 19 20  2  0  0  0  0
 20 21  1  0  0  0  0
 21 22  1  0  0  0  0
 21 29  1  0  0  0  0
 21 46  1  1  0  0  0
 22 23  1  0  0  0  0
 22 47  1  6  0  0  0
 23 24  1  0  0  0  0
 23 48  1  0  0  0  0
 23 49  1  0  0  0  0
 24 25  2  0  0  0  0
 24 29  1  0  0  0  0
 25 26  1  0  0  0  0
 25 50  1  0  0  0  0
 26 27  2  0  0  0  0
 26 51  1  0  0  0  0
 27 28  1  0  0  0  0
 27 52  1  0  0  0  0
 28 29  2  0  0  0  0
 28 53  1  0  0  0  0
M  END
$$$$
