Title Card Required
 OpenBabel03192317493D

 50 56  0  0  1  0  0  0  0  0999 V2000
   -0.0575    2.0592    0.1272 C   0  0  0  0  0  0  0  0  0  0  0  0
   -0.8435    2.8104   -0.9833 C   0  0  0  0  0  0  0  0  0  0  0  0
   -1.5436    3.6206    0.1280 C   0  0  0  0  0  0  0  0  0  0  0  0
   -0.4257    3.1950    1.1043 C   0  0  0  0  0  0  0  0  0  0  0  0
   -0.4113   -0.2704   -0.3325 O   0  0  0  0  0  0  0  0  0  0  0  0
   -0.7342    0.7670    0.4765 C   0  0  0  0  0  0  0  0  0  0  0  0
   -1.5714    0.5718    1.4063 N   0  0  0  0  0  0  0  0  0  0  0  0
   -2.0162   -0.8151    1.2638 C   0  0  2  0  0  0  0  0  0  0  0  0
   -1.0732   -1.4308    0.1865 C   0  0  1  0  0  0  0  0  0  0  0  0
   -1.9521   -2.0945   -0.8806 C   0  0  0  0  0  0  0  0  0  0  0  0
   -3.3449   -1.5888   -0.5833 C   0  0  0  0  0  0  0  0  0  0  0  0
   -4.5056   -1.7433   -1.3402 C   0  0  0  0  0  0  0  0  0  0  0  0
   -5.7009   -1.2025   -0.8666 C   0  0  0  0  0  0  0  0  0  0  0  0
   -5.7377   -0.5119    0.3487 C   0  0  0  0  0  0  0  0  0  0  0  0
   -4.5777   -0.3547    1.1058 C   0  0  0  0  0  0  0  0  0  0  0  0
   -3.3886   -0.9046    0.6331 C   0  0  0  0  0  0  0  0  0  0  0  0
    1.7378    1.5302   -1.3955 O   0  0  0  0  0  0  0  0  0  0  0  0
    1.3908    1.7631   -0.1100 C   0  0  0  0  0  0  0  0  0  0  0  0
    2.2759    1.6596    0.7898 N   0  0  0  0  0  0  0  0  0  0  0  0
    3.4749    1.1579    0.1185 C   0  0  2  0  0  0  0  0  0  0  0  0
    3.1302    1.1949   -1.4035 C   0  0  1  0  0  0  0  0  0  0  0  0
    3.3574   -0.2132   -1.9728 C   0  0  0  0  0  0  0  0  0  0  0  0
    3.5679   -1.0811   -0.7547 C   0  0  0  0  0  0  0  0  0  0  0  0
    3.6714   -2.4702   -0.6864 C   0  0  0  0  0  0  0  0  0  0  0  0
    3.8728   -3.0754    0.5542 C   0  0  0  0  0  0  0  0  0  0  0  0
    3.9673   -2.3029    1.7161 C   0  0  0  0  0  0  0  0  0  0  0  0
    3.8638   -0.9142    1.6490 C   0  0  0  0  0  0  0  0  0  0  0  0
    3.6737   -0.3144    0.4066 C   0  0  0  0  0  0  0  0  0  0  0  0
   -0.1572    3.4202   -1.5857 H   0  0  0  0  0  0  0  0  0  0  0  0
   -1.4570    2.1922   -1.6520 H   0  0  0  0  0  0  0  0  0  0  0  0
   -1.6838    4.6949   -0.0472 H   0  0  0  0  0  0  0  0  0  0  0  0
   -2.5038    3.1692    0.4099 H   0  0  0  0  0  0  0  0  0  0  0  0
   -0.7177    2.8745    2.1105 H   0  0  0  0  0  0  0  0  0  0  0  0
    0.3912    3.9260    1.1607 H   0  0  0  0  0  0  0  0  0  0  0  0
   -1.9733   -1.3271    2.2364 H   0  0  0  0  0  0  0  0  0  0  0  0
   -0.2999   -2.1001    0.5885 H   0  0  0  0  0  0  0  0  0  0  0  0
   -1.6007   -1.8245   -1.8868 H   0  0  0  0  0  0  0  0  0  0  0  0
   -1.9039   -3.1913   -0.7968 H   0  0  0  0  0  0  0  0  0  0  0  0
   -4.4806   -2.2769   -2.2926 H   0  0  0  0  0  0  0  0  0  0  0  0
   -6.6154   -1.3149   -1.4513 H   0  0  0  0  0  0  0  0  0  0  0  0
   -6.6797   -0.0895    0.7024 H   0  0  0  0  0  0  0  0  0  0  0  0
   -4.5912    0.1984    2.0466 H   0  0  0  0  0  0  0  0  0  0  0  0
    4.3542    1.7585    0.3951 H   0  0  0  0  0  0  0  0  0  0  0  0
    3.6585    1.9754   -1.9678 H   0  0  0  0  0  0  0  0  0  0  0  0
    2.4866   -0.5203   -2.5695 H   0  0  0  0  0  0  0  0  0  0  0  0
    4.2387   -0.2336   -2.6325 H   0  0  0  0  0  0  0  0  0  0  0  0
    3.5931   -3.0778   -1.5904 H   0  0  0  0  0  0  0  0  0  0  0  0
    3.9541   -4.1618    0.6193 H   0  0  0  0  0  0  0  0  0  0  0  0
    4.1172   -2.7915    2.6802 H   0  0  0  0  0  0  0  0  0  0  0  0
    3.9136   -0.3020    2.5512 H   0  0  0  0  0  0  0  0  0  0  0  0
  1  2  1  0  0  0  0
  1  4  1  0  0  0  0
  1  6  1  0  0  0  0
  1 18  1  0  0  0  0
  2  3  1  0  0  0  0
  2 29  1  0  0  0  0
  2 30  1  0  0  0  0
  3  4  1  0  0  0  0
  3 31  1  0  0  0  0
  3 32  1  0  0  0  0
  4 33  1  0  0  0  0
  4 34  1  0  0  0  0
  5  6  1  0  0  0  0
  5  9  1  0  0  0  0
  6  7  2  0  0  0  0
  7  8  1  0  0  0  0
  8  9  1  0  0  0  0
  8 16  1  0  0  0  0
  8 35  1  1  0  0  0
  9 10  1  0  0  0  0
  9 36  1  1  0  0  0
 10 11  1  0  0  0  0
 10 37  1  0  0  0  0
 10 38  1  0  0  0  0
 11 12  2  0  0  0  0
 11 16  1  0  0  0  0
 12 13  1  0  0  0  0
 12 39  1  0  0  0  0
 13 14  2  0  0  0  0
 13 40  1  0  0  0  0
 14 15  1  0  0  0  0
 14 41  1  0  0  0  0
 15 16  2  0  0  0  0
 15 42  1  0  0  0  0
 17 18  1  0  0  0  0
 17 21  1  0  0  0  0
 18 19  2  0  0  0  0
 19 20  1  0  0  0  0
 20 21  1  0  0  0  0
 20 28  1  0  0  0  0
 20 43  1  1  0  0  0
 21 22  1  0  0  0  0
 21 44  1  6  0  0  0
 22 23  1  0  0  0  0
 22 45  1  0  0  0  0
 22 46  1  0  0  0  0
 23 24  2  0  0  0  0
 23 28  1  0  0  0  0
 24 25  1  0  0  0  0
 24 47  1  0  0  0  0
 25 26  2  0  0  0  0
 25 48  1  0  0  0  0
 26 27  1  0  0  0  0
 26 49  1  0  0  0  0
 27 28  2  0  0  0  0
 27 50  1  0  0  0  0
M  END
$$$$
