Title Card Required
 OpenBabel03192317483D

 67 72  0  0  1  0  0  0  0  0999 V2000
   -1.5027   -0.5011   -0.5172 O   0  0  0  0  0  0  0  0  0  0  0  0
   -1.1217    0.4334   -1.4260 C   0  0  0  0  0  0  0  0  0  0  0  0
   -1.7082    1.5522   -1.4164 N   0  0  0  0  0  0  0  0  0  0  0  0
   -2.6472    1.5345   -0.2987 C   0  0  1  0  0  0  0  0  0  0  0  0
   -2.6202    0.0400    0.1909 C   0  0  1  0  0  0  0  0  0  0  0  0
   -0.0002   -0.0002   -2.3370 C   0  0  0  0  0  0  0  0  0  0  0  0
   -3.8864   -0.7124   -0.1298 C   0  0  0  0  0  0  0  0  0  0  0  0
   -2.2379    2.5034    0.7901 C   0  0  0  0  0  0  0  0  0  0  0  0
    2.6201   -0.0399    0.1906 C   0  0  2  0  0  0  0  0  0  0  0  0
    2.6471   -1.5345   -0.2989 C   0  0  2  0  0  0  0  0  0  0  0  0
    1.7079   -1.5524   -1.4164 N   0  0  0  0  0  0  0  0  0  0  0  0
    1.1213   -0.4336   -1.4260 C   0  0  0  0  0  0  0  0  0  0  0  0
    1.5026    0.5011   -0.5175 O   0  0  0  0  0  0  0  0  0  0  0  0
    2.2382   -2.5034    0.7901 C   0  0  0  0  0  0  0  0  0  0  0  0
    3.8862    0.7124   -0.1301 C   0  0  0  0  0  0  0  0  0  0  0  0
    4.0362    1.3983   -1.3375 C   0  0  0  0  0  0  0  0  0  0  0  0
    5.2435    2.0260   -1.6413 C   0  0  0  0  0  0  0  0  0  0  0  0
    6.3079    1.9748   -0.7427 C   0  0  0  0  0  0  0  0  0  0  0  0
    6.1604    1.2944    0.4662 C   0  0  0  0  0  0  0  0  0  0  0  0
    4.9539    0.6681    0.7713 C   0  0  0  0  0  0  0  0  0  0  0  0
    0.8887   -2.6745    1.1170 C   0  0  0  0  0  0  0  0  0  0  0  0
    0.5245   -3.5181    2.1645 C   0  0  0  0  0  0  0  0  0  0  0  0
    1.5005   -4.1974    2.8948 C   0  0  0  0  0  0  0  0  0  0  0  0
    2.8458   -4.0311    2.5713 C   0  0  0  0  0  0  0  0  0  0  0  0
    3.2112   -3.1880    1.5221 C   0  0  0  0  0  0  0  0  0  0  0  0
   -3.2107    3.1884    1.5221 C   0  0  0  0  0  0  0  0  0  0  0  0
   -2.8451    4.0316    2.5712 C   0  0  0  0  0  0  0  0  0  0  0  0
   -1.4997    4.1975    2.8946 C   0  0  0  0  0  0  0  0  0  0  0  0
   -0.5239    3.5179    2.1643 C   0  0  0  0  0  0  0  0  0  0  0  0
   -0.8884    2.6743    1.1169 C   0  0  0  0  0  0  0  0  0  0  0  0
   -4.9541   -0.6677    0.7715 C   0  0  0  0  0  0  0  0  0  0  0  0
   -6.1607   -1.2940    0.4664 C   0  0  0  0  0  0  0  0  0  0  0  0
   -6.3081   -1.9746   -0.7423 C   0  0  0  0  0  0  0  0  0  0  0  0
   -5.2437   -2.0262   -1.6409 C   0  0  0  0  0  0  0  0  0  0  0  0
   -4.0363   -1.3985   -1.3370 C   0  0  0  0  0  0  0  0  0  0  0  0
   -0.4559   -1.1845   -3.1939 C   0  0  0  0  0  0  0  0  0  0  0  0
    0.4554    1.1840   -3.1941 C   0  0  0  0  0  0  0  0  0  0  0  0
   -3.6553    1.7971   -0.6517 H   0  0  0  0  0  0  0  0  0  0  0  0
   -2.4038   -0.0189    1.2668 H   0  0  0  0  0  0  0  0  0  0  0  0
    2.4037    0.0189    1.2665 H   0  0  0  0  0  0  0  0  0  0  0  0
    3.6551   -1.7970   -0.6521 H   0  0  0  0  0  0  0  0  0  0  0  0
    3.1981    1.4504   -2.0342 H   0  0  0  0  0  0  0  0  0  0  0  0
    5.3511    2.5622   -2.5855 H   0  0  0  0  0  0  0  0  0  0  0  0
    7.2504    2.4698   -0.9808 H   0  0  0  0  0  0  0  0  0  0  0  0
    6.9868    1.2576    1.1777 H   0  0  0  0  0  0  0  0  0  0  0  0
    4.8353    0.1416    1.7222 H   0  0  0  0  0  0  0  0  0  0  0  0
    0.1210   -2.1503    0.5416 H   0  0  0  0  0  0  0  0  0  0  0  0
   -0.5309   -3.6500    2.4090 H   0  0  0  0  0  0  0  0  0  0  0  0
    1.2114   -4.8589    3.7129 H   0  0  0  0  0  0  0  0  0  0  0  0
    3.6148   -4.5643    3.1327 H   0  0  0  0  0  0  0  0  0  0  0  0
    4.2659   -3.0645    1.2630 H   0  0  0  0  0  0  0  0  0  0  0  0
   -4.2654    3.0650    1.2632 H   0  0  0  0  0  0  0  0  0  0  0  0
   -3.6139    4.5650    3.1326 H   0  0  0  0  0  0  0  0  0  0  0  0
   -1.2104    4.8591    3.7125 H   0  0  0  0  0  0  0  0  0  0  0  0
    0.5315    3.6496    2.4087 H   0  0  0  0  0  0  0  0  0  0  0  0
   -0.1208    2.1498    0.5416 H   0  0  0  0  0  0  0  0  0  0  0  0
   -4.8356   -0.1411    1.7223 H   0  0  0  0  0  0  0  0  0  0  0  0
   -6.9871   -1.2570    1.1778 H   0  0  0  0  0  0  0  0  0  0  0  0
   -7.2507   -2.4696   -0.9804 H   0  0  0  0  0  0  0  0  0  0  0  0
   -5.3513   -2.5625   -2.5850 H   0  0  0  0  0  0  0  0  0  0  0  0
   -3.1982   -1.4508   -2.0337 H   0  0  0  0  0  0  0  0  0  0  0  0
   -1.2883   -0.8727   -3.8410 H   0  0  0  0  0  0  0  0  0  0  0  0
    0.3778   -1.5314   -3.8178 H   0  0  0  0  0  0  0  0  0  0  0  0
   -0.7721   -2.0226   -2.5598 H   0  0  0  0  0  0  0  0  0  0  0  0
   -0.3784    1.5309   -3.8179 H   0  0  0  0  0  0  0  0  0  0  0  0
    0.7716    2.0223   -2.5601 H   0  0  0  0  0  0  0  0  0  0  0  0
    1.2878    0.8722   -3.8412 H   0  0  0  0  0  0  0  0  0  0  0  0
  1  2  1  0  0  0  0
  1  5  1  0  0  0  0
  2  3  2  0  0  0  0
  2  6  1  0  0  0  0
  3  4  1  0  0  0  0
  4  5  1  0  0  0  0
  4  8  1  0  0  0  0
  4 38  1  6  0  0  0
  5  7  1  0  0  0  0
  5 39  1  1  0  0  0
  6 12  1  0  0  0  0
  6 36  1  0  0  0  0
  6 37  1  0  0  0  0
  7 31  2  0  0  0  0
  7 35  1  0  0  0  0
  8 26  2  0  0  0  0
  8 30  1  0  0  0  0
  9 10  1  0  0  0  0
  9 13  1  0  0  0  0
  9 15  1  0  0  0  0
  9 40  1  1  0  0  0
 10 11  1  0  0  0  0
 10 14  1  0  0  0  0
 10 41  1  6  0  0  0
 11 12  2  0  0  0  0
 12 13  1  0  0  0  0
 14 21  2  0  0  0  0
 14 25  1  0  0  0  0
 15 16  2  0  0  0  0
 15 20  1  0  0  0  0
 16 17  1  0  0  0  0
 16 42  1  0  0  0  0
 17 18  2  0  0  0  0
 17 43  1  0  0  0  0
 18 19  1  0  0  0  0
 18 44  1  0  0  0  0
 19 20  2  0  0  0  0
 19 45  1  0  0  0  0
 20 46  1  0  0  0  0
 21 22  1  0  0  0  0
 21 47  1  0  0  0  0
 22 23  2  0  0  0  0
 22 48  1  0  0  0  0
 23 24  1  0  0  0  0
 23 49  1  0  0  0  0
 24 25  2  0  0  0  0
 24 50  1  0  0  0  0
 25 51  1  0  0  0  0
 26 27  1  0  0  0  0
 26 52  1  0  0  0  0
 27 28  2  0  0  0  0
 27 53  1  0  0  0  0
 28 29  1  0  0  0  0
 28 54  1  0  0  0  0
 29 30  2  0  0  0  0
 29 55  1  0  0  0  0
 30 56  1  0  0  0  0
 31 32  1  0  0  0  0
 31 57  1  0  0  0  0
 32 33  2  0  0  0  0
 32 58  1  0  0  0  0
 33 34  1  0  0  0  0
 33 59  1  0  0  0  0
 34 35  2  0  0  0  0
 34 60  1  0  0  0  0
 35 61  1  0  0  0  0
 36 62  1  0  0  0  0
 36 63  1  0  0  0  0
 36 64  1  0  0  0  0
 37 65  1  0  0  0  0
 37 66  1  0  0  0  0
 37 67  1  0  0  0  0
M  END
$$$$
