Title Card Required
 OpenBabel03192317443D

 31 33  0  0  1  0  0  0  0  0999 V2000
    1.5487    2.0739   -0.0974 O   0  0  0  0  0  0  0  0  0  0  0  0
    1.3828    0.7381   -0.1688 C   0  0  0  0  0  0  0  0  0  0  0  0
    0.2144    0.2754   -0.3199 N   0  0  0  0  0  0  0  0  0  0  0  0
   -0.6917    1.4216   -0.3700 C   0  0  2  0  0  0  0  0  0  0  0  0
    0.2371    2.6364   -0.1161 C   0  0  0  0  0  0  0  0  0  0  0  0
    2.6242   -0.0833   -0.0657 C   0  0  0  0  0  0  0  0  0  0  0  0
    3.7812    0.5719   -0.0293 N   0  0  0  0  0  0  0  0  0  0  0  0
    4.8818   -0.1689    0.0571 C   0  0  0  0  0  0  0  0  0  0  0  0
    4.8354   -1.5588    0.1102 C   0  0  0  0  0  0  0  0  0  0  0  0
    3.5657   -2.1340    0.0694 C   0  0  0  0  0  0  0  0  0  0  0  0
    2.4615   -1.4042   -0.0186 N   0  0  0  0  0  0  0  0  0  0  0  0
   -1.8200    1.3021    0.6601 C   0  0  0  0  0  0  0  0  0  0  0  0
   -2.8470    0.2419    0.3407 C   0  0  0  0  0  0  0  0  0  0  0  0
   -2.4893   -1.1108    0.2512 C   0  0  0  0  0  0  0  0  0  0  0  0
   -3.4485   -2.0753   -0.0491 C   0  0  0  0  0  0  0  0  0  0  0  0
   -4.7778   -1.7094   -0.2635 C   0  0  0  0  0  0  0  0  0  0  0  0
   -5.1428   -0.3681   -0.1780 C   0  0  0  0  0  0  0  0  0  0  0  0
   -4.1816    0.5974    0.1205 C   0  0  0  0  0  0  0  0  0  0  0  0
   -1.1441    1.4608   -1.3750 H   0  0  0  0  0  0  0  0  0  0  0  0
    0.1900    3.4024   -0.9008 H   0  0  0  0  0  0  0  0  0  0  0  0
    0.0446    3.1105    0.8598 H   0  0  0  0  0  0  0  0  0  0  0  0
    5.8351    0.3680    0.0854 H   0  0  0  0  0  0  0  0  0  0  0  0
    5.7391   -2.1632    0.1801 H   0  0  0  0  0  0  0  0  0  0  0  0
    3.4362   -3.2200    0.1097 H   0  0  0  0  0  0  0  0  0  0  0  0
   -1.3550    1.1062    1.6409 H   0  0  0  0  0  0  0  0  0  0  0  0
   -2.3236    2.2791    0.7333 H   0  0  0  0  0  0  0  0  0  0  0  0
   -1.4469   -1.3952    0.4004 H   0  0  0  0  0  0  0  0  0  0  0  0
   -3.1542   -3.1241   -0.1162 H   0  0  0  0  0  0  0  0  0  0  0  0
   -5.5264   -2.4688   -0.4953 H   0  0  0  0  0  0  0  0  0  0  0  0
   -6.1794   -0.0698   -0.3439 H   0  0  0  0  0  0  0  0  0  0  0  0
   -4.4744    1.6482    0.1873 H   0  0  0  0  0  0  0  0  0  0  0  0
  1  2  1  0  0  0  0
  1  5  1  0  0  0  0
  2  3  2  0  0  0  0
  2  6  1  0  0  0  0
  3  4  1  0  0  0  0
  4  5  1  0  0  0  0
  4 12  1  0  0  0  0
  4 19  1  6  0  0  0
  5 20  1  0  0  0  0
  5 21  1  0  0  0  0
  6  7  2  0  0  0  0
  6 11  1  0  0  0  0
  7  8  1  0  0  0  0
  8  9  2  0  0  0  0
  8 22  1  0  0  0  0
  9 10  1  0  0  0  0
  9 23  1  0  0  0  0
 10 11  2  0  0  0  0
 10 24  1  0  0  0  0
 12 13  1  0  0  0  0
 12 25  1  0  0  0  0
 12 26  1  0  0  0  0
 13 14  2  0  0  0  0
 13 18  1  0  0  0  0
 14 15  1  0  0  0  0
 14 27  1  0  0  0  0
 15 16  2  0  0  0  0
 15 28  1  0  0  0  0
 16 17  1  0  0  0  0
 16 29  1  0  0  0  0
 17 18  2  0  0  0  0
 17 30  1  0  0  0  0
 18 31  1  0  0  0  0
M  END
$$$$
