Title Card Required
 OpenBabel03192317563D

 35 37  0  0  1  0  0  0  0  0999 V2000
   -0.2473    3.0676   -0.1239 O   0  0  0  0  0  0  0  0  0  0  0  0
    0.0417    1.7560   -0.1491 C   0  0  0  0  0  0  0  0  0  0  0  0
   -0.9059    0.9219   -0.2791 N   0  0  0  0  0  0  0  0  0  0  0  0
   -2.1406    1.6970   -0.3810 C   0  0  2  0  0  0  0  0  0  0  0  0
   -1.6728    3.1604   -0.1756 C   0  0  0  0  0  0  0  0  0  0  0  0
    1.4728    1.3759   -0.0349 C   0  0  0  0  0  0  0  0  0  0  0  0
    1.8076    0.0177   -0.1229 C   0  0  0  0  0  0  0  0  0  0  0  0
    3.1468   -0.3211   -0.0134 C   0  0  0  0  0  0  0  0  0  0  0  0
    4.0964    0.6840    0.1741 C   0  0  0  0  0  0  0  0  0  0  0  0
    3.6480    2.0003    0.2445 C   0  0  0  0  0  0  0  0  0  0  0  0
    2.3658    2.3426    0.1431 N   0  0  0  0  0  0  0  0  0  0  0  0
    3.6031   -1.7562   -0.0931 C   0  0  0  0  0  0  0  0  0  0  0  0
    2.5863   -2.5935   -0.2762 F   0  0  0  0  0  0  0  0  0  0  0  0
    4.4619   -1.9287   -1.0988 F   0  0  0  0  0  0  0  0  0  0  0  0
    4.2333   -2.1168    1.0261 F   0  0  0  0  0  0  0  0  0  0  0  0
   -3.1897    1.2454    0.6413 C   0  0  0  0  0  0  0  0  0  0  0  0
   -3.7074   -0.1463    0.3801 C   0  0  0  0  0  0  0  0  0  0  0  0
   -2.9628   -1.2690    0.7610 C   0  0  0  0  0  0  0  0  0  0  0  0
   -3.4233   -2.5537    0.4835 C   0  0  0  0  0  0  0  0  0  0  0  0
   -4.6354   -2.7369   -0.1826 C   0  0  0  0  0  0  0  0  0  0  0  0
   -5.3842   -1.6268   -0.5677 C   0  0  0  0  0  0  0  0  0  0  0  0
   -4.9208   -0.3418   -0.2867 C   0  0  0  0  0  0  0  0  0  0  0  0
   -2.5604    1.5449   -1.3896 H   0  0  0  0  0  0  0  0  0  0  0  0
   -1.9531    3.8347   -0.9946 H   0  0  0  0  0  0  0  0  0  0  0  0
   -2.0315    3.5825    0.7766 H   0  0  0  0  0  0  0  0  0  0  0  0
    1.0249   -0.7252   -0.2739 H   0  0  0  0  0  0  0  0  0  0  0  0
    5.1578    0.4484    0.2624 H   0  0  0  0  0  0  0  0  0  0  0  0
    4.3609    2.8166    0.3899 H   0  0  0  0  0  0  0  0  0  0  0  0
   -2.7361    1.3082    1.6436 H   0  0  0  0  0  0  0  0  0  0  0  0
   -4.0261    1.9617    0.6151 H   0  0  0  0  0  0  0  0  0  0  0  0
   -2.0080   -1.1250    1.2695 H   0  0  0  0  0  0  0  0  0  0  0  0
   -2.8316   -3.4189    0.7874 H   0  0  0  0  0  0  0  0  0  0  0  0
   -4.9960   -3.7438   -0.3986 H   0  0  0  0  0  0  0  0  0  0  0  0
   -6.3360   -1.7603   -1.0846 H   0  0  0  0  0  0  0  0  0  0  0  0
   -5.5150    0.5258   -0.5854 H   0  0  0  0  0  0  0  0  0  0  0  0
  1  2  1  0  0  0  0
  1  5  1  0  0  0  0
  2  3  2  0  0  0  0
  2  6  1  0  0  0  0
  3  4  1  0  0  0  0
  4  5  1  0  0  0  0
  4 16  1  0  0  0  0
  4 23  1  6  0  0  0
  5 24  1  0  0  0  0
  5 25  1  0  0  0  0
  6  7  2  0  0  0  0
  6 11  1  0  0  0  0
  7  8  1  0  0  0  0
  7 26  1  0  0  0  0
  8  9  2  0  0  0  0
  8 12  1  0  0  0  0
  9 10  1  0  0  0  0
  9 27  1  0  0  0  0
 10 11  2  0  0  0  0
 10 28  1  0  0  0  0
 12 13  1  0  0  0  0
 12 14  1  0  0  0  0
 12 15  1  0  0  0  0
 16 17  1  0  0  0  0
 16 29  1  0  0  0  0
 16 30  1  0  0  0  0
 17 18  2  0  0  0  0
 17 22  1  0  0  0  0
 18 19  1  0  0  0  0
 18 31  1  0  0  0  0
 19 20  2  0  0  0  0
 19 32  1  0  0  0  0
 20 21  1  0  0  0  0
 20 33  1  0  0  0  0
 21 22  2  0  0  0  0
 21 34  1  0  0  0  0
 22 35  1  0  0  0  0
M  END
$$$$
