Title Card Required
 OpenBabel03192317433D

 48 52  0  0  0  0  0  0  0  0999 V2000
    2.6397    0.6779   -1.1838 C   0  0  0  0  0  0  0  0  0  0  0  0
    2.7312    1.8069   -1.9955 C   0  0  0  0  0  0  0  0  0  0  0  0
    1.5477    2.4369   -2.3780 C   0  0  0  0  0  0  0  0  0  0  0  0
    0.3037    1.9493   -1.9765 C   0  0  0  0  0  0  0  0  0  0  0  0
    0.2181    0.8054   -1.1729 C   0  0  0  0  0  0  0  0  0  0  0  0
    1.4014    0.1804   -0.7610 C   0  0  0  0  0  0  0  0  0  0  0  0
    3.4258   -1.2092   -0.1294 C   0  0  0  0  0  0  0  0  0  0  0  0
   -1.4709   -1.0635   -0.9179 C   0  0  0  0  0  0  0  0  0  0  0  0
   -2.0258    1.0300   -0.0186 C   0  0  0  0  0  0  0  0  0  0  0  0
   -3.2137    0.5143    0.5059 C   0  0  0  0  0  0  0  0  0  0  0  0
   -1.2468   -3.2570   -1.3182 C   0  0  0  0  0  0  0  0  0  0  0  0
   -2.7037   -3.0534   -0.8672 C   0  0  0  0  0  0  0  0  0  0  0  0
   -2.6506   -1.6159   -0.4060 C   0  0  0  0  0  0  0  0  0  0  0  0
   -3.5391   -0.8272    0.3183 C   0  0  0  0  0  0  0  0  0  0  0  0
   -3.8569    1.6081    1.3250 C   0  0  0  0  0  0  0  0  0  0  0  0
   -3.0415    2.8325    0.8698 C   0  0  0  0  0  0  0  0  0  0  0  0
   -1.0923    0.2699   -0.7296 C   0  0  0  0  0  0  0  0  0  0  0  0
    3.7451    0.0361   -0.7406 O   0  0  0  0  0  0  0  0  0  0  0  0
    1.6263   -1.2108    0.4133 P   0  0  1  0  0  0  0  0  0  0  0  0
   -1.8237    2.3297    0.3085 O   0  0  0  0  0  0  0  0  0  0  0  0
   -0.7362   -1.9551   -1.6197 O   0  0  0  0  0  0  0  0  0  0  0  0
    1.7275   -0.2698    2.0624 C   0  0  0  0  0  0  0  0  0  0  0  0
    0.3155    0.2401    2.3743 C   0  0  0  0  0  0  0  0  0  0  0  0
    2.1451   -1.3071    3.1100 C   0  0  0  0  0  0  0  0  0  0  0  0
    2.7043    0.9054    2.0652 C   0  0  0  0  0  0  0  0  0  0  0  0
    3.7095    2.1725   -2.3065 H   0  0  0  0  0  0  0  0  0  0  0  0
    1.5958    3.3250   -3.0104 H   0  0  0  0  0  0  0  0  0  0  0  0
   -0.6132    2.4523   -2.2846 H   0  0  0  0  0  0  0  0  0  0  0  0
    4.1182   -1.3765    0.7077 H   0  0  0  0  0  0  0  0  0  0  0  0
    3.5709   -2.0148   -0.8682 H   0  0  0  0  0  0  0  0  0  0  0  0
   -0.6374   -3.6756   -0.4998 H   0  0  0  0  0  0  0  0  0  0  0  0
   -1.1337   -3.8830   -2.2110 H   0  0  0  0  0  0  0  0  0  0  0  0
   -2.9920   -3.7599   -0.0776 H   0  0  0  0  0  0  0  0  0  0  0  0
   -3.4113   -3.1721   -1.7038 H   0  0  0  0  0  0  0  0  0  0  0  0
   -4.4580   -1.2475    0.7325 H   0  0  0  0  0  0  0  0  0  0  0  0
   -4.9298    1.7368    1.1281 H   0  0  0  0  0  0  0  0  0  0  0  0
   -3.7335    1.4139    2.4027 H   0  0  0  0  0  0  0  0  0  0  0  0
   -3.5756    3.3899    0.0832 H   0  0  0  0  0  0  0  0  0  0  0  0
   -2.7820    3.5238    1.6801 H   0  0  0  0  0  0  0  0  0  0  0  0
   -0.4399   -0.5577    2.2804 H   0  0  0  0  0  0  0  0  0  0  0  0
    0.2841    0.6234    3.4079 H   0  0  0  0  0  0  0  0  0  0  0  0
    0.0285    1.0635    1.7023 H   0  0  0  0  0  0  0  0  0  0  0  0
    3.1442   -1.7215    2.9004 H   0  0  0  0  0  0  0  0  0  0  0  0
    2.1850   -0.8384    4.1067 H   0  0  0  0  0  0  0  0  0  0  0  0
    1.4312   -2.1436    3.1525 H   0  0  0  0  0  0  0  0  0  0  0  0
    3.7374    0.5895    1.8591 H   0  0  0  0  0  0  0  0  0  0  0  0
    2.4222    1.6628    1.3189 H   0  0  0  0  0  0  0  0  0  0  0  0
    2.6916    1.3903    3.0558 H   0  0  0  0  0  0  0  0  0  0  0  0
  1  2  2  0  0  0  0
  1  6  1  0  0  0  0
  1 18  1  0  0  0  0
  2  3  1  0  0  0  0
  2 26  1  0  0  0  0
  3  4  2  0  0  0  0
  3 27  1  0  0  0  0
  4  5  1  0  0  0  0
  4 28  1  0  0  0  0
  5  6  2  0  0  0  0
  5 17  1  0  0  0  0
  6 19  1  0  0  0  0
  7 18  1  0  0  0  0
  7 19  1  0  0  0  0
  7 29  1  0  0  0  0
  7 30  1  0  0  0  0
  8 13  2  0  0  0  0
  8 17  1  0  0  0  0
  8 21  1  0  0  0  0
  9 10  1  0  0  0  0
  9 17  2  0  0  0  0
  9 20  1  0  0  0  0
 10 14  2  0  0  0  0
 10 15  1  0  0  0  0
 11 12  1  0  0  0  0
 11 21  1  0  0  0  0
 11 31  1  0  0  0  0
 11 32  1  0  0  0  0
 12 13  1  0  0  0  0
 12 33  1  0  0  0  0
 12 34  1  0  0  0  0
 13 14  1  0  0  0  0
 14 35  1  0  0  0  0
 15 16  1  0  0  0  0
 15 36  1  0  0  0  0
 15 37  1  0  0  0  0
 16 20  1  0  0  0  0
 16 38  1  0  0  0  0
 16 39  1  0  0  0  0
 19 22  1  1  0  0  0
 22 23  1  0  0  0  0
 22 24  1  0  0  0  0
 22 25  1  0  0  0  0
 23 40  1  0  0  0  0
 23 41  1  0  0  0  0
 23 42  1  0  0  0  0
 24 43  1  0  0  0  0
 24 44  1  0  0  0  0
 24 45  1  0  0  0  0
 25 46  1  0  0  0  0
 25 47  1  0  0  0  0
 25 48  1  0  0  0  0
M  END
$$$$
