Title Card Required
 OpenBabel03192317473D

 32 34  0  0  1  0  0  0  0  0999 V2000
    1.0845    1.8656    0.7585 O   0  0  0  0  0  0  0  0  0  0  0  0
    0.6651    1.0337   -0.2111 C   0  0  0  0  0  0  0  0  0  0  0  0
    1.4971    0.6482   -1.0894 N   0  0  0  0  0  0  0  0  0  0  0  0
    2.7969    1.2166   -0.7075 C   0  0  1  0  0  0  0  0  0  0  0  0
    2.4243    2.2235    0.4119 C   0  0  0  0  0  0  0  0  0  0  0  0
   -0.7560    0.6042   -0.1666 C   0  0  0  0  0  0  0  0  0  0  0  0
   -1.2107   -0.3016   -1.1307 C   0  0  0  0  0  0  0  0  0  0  0  0
   -2.5397   -0.7021   -1.0796 C   0  0  0  0  0  0  0  0  0  0  0  0
   -3.3459   -0.1846   -0.0698 C   0  0  0  0  0  0  0  0  0  0  0  0
   -2.7914    0.7118    0.8483 C   0  0  0  0  0  0  0  0  0  0  0  0
   -1.5252    1.1004    0.8011 N   0  0  0  0  0  0  0  0  0  0  0  0
   -4.7988   -0.5560    0.0498 C   0  0  0  0  0  0  0  0  0  0  0  0
   -5.1256   -1.5411   -0.7867 F   0  0  0  0  0  0  0  0  0  0  0  0
   -5.0954   -0.9569    1.2867 F   0  0  0  0  0  0  0  0  0  0  0  0
   -5.5908    0.4827   -0.2230 F   0  0  0  0  0  0  0  0  0  0  0  0
    3.7328    0.1135   -0.2542 C   0  0  0  0  0  0  0  0  0  0  0  0
    4.8944   -0.1884   -0.9646 C   0  0  0  0  0  0  0  0  0  0  0  0
    5.7395   -1.2141   -0.5378 C   0  0  0  0  0  0  0  0  0  0  0  0
    5.4267   -1.9456    0.6053 C   0  0  0  0  0  0  0  0  0  0  0  0
    4.2657   -1.6489    1.3222 C   0  0  0  0  0  0  0  0  0  0  0  0
    3.4251   -0.6262    0.8937 C   0  0  0  0  0  0  0  0  0  0  0  0
    3.2442    1.7243   -1.5735 H   0  0  0  0  0  0  0  0  0  0  0  0
    3.0577    2.1424    1.3040 H   0  0  0  0  0  0  0  0  0  0  0  0
    2.4248    3.2643    0.0559 H   0  0  0  0  0  0  0  0  0  0  0  0
   -0.5143   -0.6668   -1.8848 H   0  0  0  0  0  0  0  0  0  0  0  0
   -2.9472   -1.4084   -1.8037 H   0  0  0  0  0  0  0  0  0  0  0  0
   -3.4080    1.1241    1.6538 H   0  0  0  0  0  0  0  0  0  0  0  0
    5.1399    0.3826   -1.8630 H   0  0  0  0  0  0  0  0  0  0  0  0
    6.6449   -1.4422   -1.1024 H   0  0  0  0  0  0  0  0  0  0  0  0
    6.0862   -2.7478    0.9397 H   0  0  0  0  0  0  0  0  0  0  0  0
    4.0152   -2.2191    2.2180 H   0  0  0  0  0  0  0  0  0  0  0  0
    2.5156   -0.3961    1.4571 H   0  0  0  0  0  0  0  0  0  0  0  0
  1  2  1  0  0  0  0
  1  5  1  0  0  0  0
  2  3  2  0  0  0  0
  2  6  1  0  0  0  0
  3  4  1  0  0  0  0
  4  5  1  0  0  0  0
  4 16  1  0  0  0  0
  4 22  1  6  0  0  0
  5 23  1  0  0  0  0
  5 24  1  0  0  0  0
  6  7  2  0  0  0  0
  6 11  1  0  0  0  0
  7  8  1  0  0  0  0
  7 25  1  0  0  0  0
  8  9  2  0  0  0  0
  8 26  1  0  0  0  0
  9 10  1  0  0  0  0
  9 12  1  0  0  0  0
 10 11  2  0  0  0  0
 10 27  1  0  0  0  0
 12 13  1  0  0  0  0
 12 14  1  0  0  0  0
 12 15  1  0  0  0  0
 16 17  2  0  0  0  0
 16 21  1  0  0  0  0
 17 18  1  0  0  0  0
 17 28  1  0  0  0  0
 18 19  2  0  0  0  0
 18 29  1  0  0  0  0
 19 20  1  0  0  0  0
 19 30  1  0  0  0  0
 20 21  2  0  0  0  0
 20 31  1  0  0  0  0
 21 32  1  0  0  0  0
M  END
$$$$
