Title Card Required
 OpenBabel03192317523D

 37 37  0  0  1  0  0  0  0  0999 V2000
    0.7888   -0.8305   -0.5811 C   0  0  0  0  0  0  0  0  0  0  0  0
   -0.5425   -0.8968   -0.3017 N   0  0  0  0  0  0  0  0  0  0  0  0
    1.2993   -1.3803   -1.5295 O   0  0  0  0  0  0  0  0  0  0  0  0
    1.4478   -0.0952    0.3335 O   0  0  0  0  0  0  0  0  0  0  0  0
   -1.2574   -0.1783    0.7414 C   0  0  1  0  0  0  0  0  0  0  0  0
   -1.7460    1.2062    0.2475 C   0  0  2  0  0  0  0  0  0  0  0  0
   -2.8538    1.0466   -0.7920 C   0  0  0  0  0  0  0  0  0  0  0  0
   -4.0167    0.2038   -0.2726 C   0  0  0  0  0  0  0  0  0  0  0  0
   -3.5377   -1.1651    0.2114 C   0  0  0  0  0  0  0  0  0  0  0  0
   -2.4302   -1.0179    1.2562 C   0  0  0  0  0  0  0  0  0  0  0  0
   -0.7000    2.0589   -0.2859 N   0  0  0  0  0  0  0  0  0  0  0  0
    2.8784    0.1164    0.2225 C   0  0  0  0  0  0  0  0  0  0  0  0
    3.1996    0.8562   -1.0735 C   0  0  0  0  0  0  0  0  0  0  0  0
    3.6178   -1.2149    0.3214 C   0  0  0  0  0  0  0  0  0  0  0  0
    3.1932    0.9925    1.4289 C   0  0  0  0  0  0  0  0  0  0  0  0
   -1.0643   -1.4321   -0.9847 H   0  0  0  0  0  0  0  0  0  0  0  0
   -0.5398   -0.0200    1.5582 H   0  0  0  0  0  0  0  0  0  0  0  0
   -2.1807    1.7130    1.1289 H   0  0  0  0  0  0  0  0  0  0  0  0
   -3.1893    2.0460   -1.1038 H   0  0  0  0  0  0  0  0  0  0  0  0
   -2.4207    0.5667   -1.6894 H   0  0  0  0  0  0  0  0  0  0  0  0
   -4.4973    0.7322    0.5688 H   0  0  0  0  0  0  0  0  0  0  0  0
   -4.7851    0.0893   -1.0515 H   0  0  0  0  0  0  0  0  0  0  0  0
   -4.3744   -1.7420    0.6325 H   0  0  0  0  0  0  0  0  0  0  0  0
   -3.1733   -1.7523   -0.6506 H   0  0  0  0  0  0  0  0  0  0  0  0
   -2.0603   -2.0003    1.5855 H   0  0  0  0  0  0  0  0  0  0  0  0
   -2.8457   -0.5136    2.1440 H   0  0  0  0  0  0  0  0  0  0  0  0
   -0.3461    1.6566   -1.1545 H   0  0  0  0  0  0  0  0  0  0  0  0
    0.0947    2.0785    0.3511 H   0  0  0  0  0  0  0  0  0  0  0  0
    2.6082    1.7823   -1.1339 H   0  0  0  0  0  0  0  0  0  0  0  0
    4.2646    1.1285   -1.0852 H   0  0  0  0  0  0  0  0  0  0  0  0
    2.9794    0.2306   -1.9457 H   0  0  0  0  0  0  0  0  0  0  0  0
    3.3246   -1.7395    1.2424 H   0  0  0  0  0  0  0  0  0  0  0  0
    3.3916   -1.8508   -0.5418 H   0  0  0  0  0  0  0  0  0  0  0  0
    4.7008   -1.0296    0.3593 H   0  0  0  0  0  0  0  0  0  0  0  0
    2.9111    0.4776    2.3579 H   0  0  0  0  0  0  0  0  0  0  0  0
    4.2678    1.2180    1.4618 H   0  0  0  0  0  0  0  0  0  0  0  0
    2.6387    1.9404    1.3714 H   0  0  0  0  0  0  0  0  0  0  0  0
  1  2  1  0  0  0  0
  1  3  2  0  0  0  0
  1  4  1  0  0  0  0
  2  5  1  0  0  0  0
  2 16  1  0  0  0  0
  4 12  1  0  0  0  0
  5  6  1  0  0  0  0
  5 10  1  0  0  0  0
  5 17  1  1  0  0  0
  6  7  1  0  0  0  0
  6 11  1  0  0  0  0
  6 18  1  1  0  0  0
  7  8  1  0  0  0  0
  7 19  1  0  0  0  0
  7 20  1  0  0  0  0
  8  9  1  0  0  0  0
  8 21  1  0  0  0  0
  8 22  1  0  0  0  0
  9 10  1  0  0  0  0
  9 23  1  0  0  0  0
  9 24  1  0  0  0  0
 10 25  1  0  0  0  0
 10 26  1  0  0  0  0
 11 27  1  0  0  0  0
 11 28  1  0  0  0  0
 12 13  1  0  0  0  0
 12 14  1  0  0  0  0
 12 15  1  0  0  0  0
 13 29  1  0  0  0  0
 13 30  1  0  0  0  0
 13 31  1  0  0  0  0
 14 32  1  0  0  0  0
 14 33  1  0  0  0  0
 14 34  1  0  0  0  0
 15 35  1  0  0  0  0
 15 36  1  0  0  0  0
 15 37  1  0  0  0  0
M  END
$$$$
