Title Card Required
 OpenBabel03192317563D

 49 55  0  0  1  0  0  0  0  0999 V2000
   -1.1145    2.7797    0.4376 C   0  0  0  0  0  0  0  0  0  0  0  0
   -1.0576    1.3814    0.4208 C   0  0  0  0  0  0  0  0  0  0  0  0
    0.0001    0.6954    0.0002 N   0  0  0  0  0  0  0  0  0  0  0  0
    1.0577    1.3812   -0.4207 C   0  0  0  0  0  0  0  0  0  0  0  0
    1.1147    2.7795   -0.4380 C   0  0  0  0  0  0  0  0  0  0  0  0
    0.0001    3.4869   -0.0003 C   0  0  0  0  0  0  0  0  0  0  0  0
   -2.2374    0.6140    0.8951 C   0  0  0  0  0  0  0  0  0  0  0  0
    2.2375    0.6136   -0.8949 C   0  0  0  0  0  0  0  0  0  0  0  0
   -2.1200   -0.7259    0.9219 O   0  0  0  0  0  0  0  0  0  0  0  0
   -3.3273   -1.2407    1.4963 C   0  0  1  0  0  0  0  0  0  0  0  0
   -4.2279    0.0292    1.5798 C   0  0  1  0  0  0  0  0  0  0  0  0
   -3.3301    1.1410    1.2738 N   0  0  0  0  0  0  0  0  0  0  0  0
    3.3299    1.1404   -1.2744 N   0  0  0  0  0  0  0  0  0  0  0  0
    4.2277    0.0285   -1.5800 C   0  0  2  0  0  0  0  0  0  0  0  0
    3.3271   -1.2414   -1.4957 C   0  0  2  0  0  0  0  0  0  0  0  0
    2.1201   -0.7263   -0.9208 O   0  0  0  0  0  0  0  0  0  0  0  0
    4.0109   -2.2412   -0.5552 C   0  0  0  0  0  0  0  0  0  0  0  0
    5.1120   -1.4424    0.1014 C   0  0  0  0  0  0  0  0  0  0  0  0
    5.2580   -0.1868   -0.4913 C   0  0  0  0  0  0  0  0  0  0  0  0
   -5.2582   -0.1866    0.4911 C   0  0  0  0  0  0  0  0  0  0  0  0
   -5.1119   -1.4424   -0.1013 C   0  0  0  0  0  0  0  0  0  0  0  0
   -4.0107   -2.2408    0.5555 C   0  0  0  0  0  0  0  0  0  0  0  0
    5.9456   -1.8209    1.1528 C   0  0  0  0  0  0  0  0  0  0  0  0
    6.9186   -0.9284    1.6018 C   0  0  0  0  0  0  0  0  0  0  0  0
    7.0569    0.3305    1.0092 C   0  0  0  0  0  0  0  0  0  0  0  0
    6.2228    0.7112   -0.0413 C   0  0  0  0  0  0  0  0  0  0  0  0
   -6.2230    0.7111    0.0406 C   0  0  0  0  0  0  0  0  0  0  0  0
   -7.0570    0.3300   -1.0097 C   0  0  0  0  0  0  0  0  0  0  0  0
   -6.9185   -0.9292   -1.6019 C   0  0  0  0  0  0  0  0  0  0  0  0
   -5.9454   -1.8214   -1.1525 C   0  0  0  0  0  0  0  0  0  0  0  0
   -2.0226    3.2670    0.7920 H   0  0  0  0  0  0  0  0  0  0  0  0
    2.0227    3.2667   -0.7926 H   0  0  0  0  0  0  0  0  0  0  0  0
    0.0001    4.5776   -0.0005 H   0  0  0  0  0  0  0  0  0  0  0  0
   -3.0700   -1.6771    2.4714 H   0  0  0  0  0  0  0  0  0  0  0  0
   -4.6967    0.1797    2.5640 H   0  0  0  0  0  0  0  0  0  0  0  0
    4.6963    0.1786   -2.5643 H   0  0  0  0  0  0  0  0  0  0  0  0
    3.0692   -1.6779   -2.4707 H   0  0  0  0  0  0  0  0  0  0  0  0
    3.2830   -2.6445    0.1632 H   0  0  0  0  0  0  0  0  0  0  0  0
    4.4234   -3.0906   -1.1216 H   0  0  0  0  0  0  0  0  0  0  0  0
   -3.2824   -2.6436   -0.1628 H   0  0  0  0  0  0  0  0  0  0  0  0
   -4.4228   -3.0905    1.1217 H   0  0  0  0  0  0  0  0  0  0  0  0
    5.8355   -2.8006    1.6224 H   0  0  0  0  0  0  0  0  0  0  0  0
    7.5742   -1.2128    2.4264 H   0  0  0  0  0  0  0  0  0  0  0  0
    7.8181    1.0205    1.3766 H   0  0  0  0  0  0  0  0  0  0  0  0
    6.3125    1.6981   -0.4989 H   0  0  0  0  0  0  0  0  0  0  0  0
   -6.3129    1.6981    0.4980 H   0  0  0  0  0  0  0  0  0  0  0  0
   -7.8184    1.0197   -1.3774 H   0  0  0  0  0  0  0  0  0  0  0  0
   -7.5741   -1.2140   -2.4264 H   0  0  0  0  0  0  0  0  0  0  0  0
   -5.8352   -2.8012   -1.6218 H   0  0  0  0  0  0  0  0  0  0  0  0
  1  2  2  0  0  0  0
  1  6  1  0  0  0  0
  1 31  1  0  0  0  0
  2  3  1  0  0  0  0
  2  7  1  0  0  0  0
  3  4  2  0  0  0  0
  4  5  1  0  0  0  0
  4  8  1  0  0  0  0
  5  6  2  0  0  0  0
  5 32  1  0  0  0  0
  6 33  1  0  0  0  0
  7  9  1  0  0  0  0
  7 12  2  0  0  0  0
  8 13  2  0  0  0  0
  8 16  1  0  0  0  0
  9 10  1  0  0  0  0
 10 11  1  0  0  0  0
 10 22  1  0  0  0  0
 10 34  1  1  0  0  0
 11 12  1  0  0  0  0
 11 20  1  0  0  0  0
 11 35  1  1  0  0  0
 13 14  1  0  0  0  0
 14 15  1  0  0  0  0
 14 19  1  0  0  0  0
 14 36  1  6  0  0  0
 15 16  1  0  0  0  0
 15 17  1  0  0  0  0
 15 37  1  6  0  0  0
 17 18  1  0  0  0  0
 17 38  1  0  0  0  0
 17 39  1  0  0  0  0
 18 19  2  0  0  0  0
 18 23  1  0  0  0  0
 19 26  1  0  0  0  0
 20 21  2  0  0  0  0
 20 27  1  0  0  0  0
 21 22  1  0  0  0  0
 21 30  1  0  0  0  0
 22 40  1  0  0  0  0
 22 41  1  0  0  0  0
 23 24  2  0  0  0  0
 23 42  1  0  0  0  0
 24 25  1  0  0  0  0
 24 43  1  0  0  0  0
 25 26  2  0  0  0  0
 25 44  1  0  0  0  0
 26 45  1  0  0  0  0
 27 28  2  0  0  0  0
 27 46  1  0  0  0  0
 28 29  1  0  0  0  0
 28 47  1  0  0  0  0
 29 30  2  0  0  0  0
 29 48  1  0  0  0  0
 30 49  1  0  0  0  0
M  END
$$$$
