Title Card Required
 OpenBabel03192317453D

 40 43  0  0  0  0  0  0  0  0999 V2000
   -2.9254    0.8075    0.3725 C   0  0  0  0  0  0  0  0  0  0  0  0
   -1.6188    0.7598   -0.1942 C   0  0  0  0  0  0  0  0  0  0  0  0
   -0.6790   -0.2124    0.2793 C   0  0  0  0  0  0  0  0  0  0  0  0
   -1.0515   -1.0835    1.2895 C   0  0  0  0  0  0  0  0  0  0  0  0
   -2.3579   -1.0260    1.8487 C   0  0  0  0  0  0  0  0  0  0  0  0
   -3.2687   -0.1076    1.4033 C   0  0  0  0  0  0  0  0  0  0  0  0
    0.6941   -0.1965   -0.3168 C   0  0  0  0  0  0  0  0  0  0  0  0
    1.6668    0.6520    0.3099 C   0  0  0  0  0  0  0  0  0  0  0  0
    2.9719    0.7617   -0.2494 C   0  0  0  0  0  0  0  0  0  0  0  0
    3.2862    0.0311   -1.4273 C   0  0  0  0  0  0  0  0  0  0  0  0
    2.3455   -0.7644   -2.0176 C   0  0  0  0  0  0  0  0  0  0  0  0
    1.0387   -0.8853   -1.4683 C   0  0  0  0  0  0  0  0  0  0  0  0
   -3.8556    1.7701   -0.1048 C   0  0  0  0  0  0  0  0  0  0  0  0
   -3.5075    2.6500   -1.0995 C   0  0  0  0  0  0  0  0  0  0  0  0
   -2.2084    2.6090   -1.6610 C   0  0  0  0  0  0  0  0  0  0  0  0
   -1.2875    1.6901   -1.2204 C   0  0  0  0  0  0  0  0  0  0  0  0
    1.3664    1.4005    1.4834 C   0  0  0  0  0  0  0  0  0  0  0  0
    2.3133    2.2055    2.0687 C   0  0  0  0  0  0  0  0  0  0  0  0
    3.6104    2.3089    1.5115 C   0  0  0  0  0  0  0  0  0  0  0  0
    3.9291    1.6030    0.3777 C   0  0  0  0  0  0  0  0  0  0  0  0
   -0.0937   -2.1201    1.7800 C   0  0  0  0  0  0  0  0  0  0  0  0
    1.0402   -2.2629    1.4110 O   0  0  0  0  0  0  0  0  0  0  0  0
   -0.6374   -2.9184    2.7154 O   0  0  0  0  0  0  0  0  0  0  0  0
    0.1287   -1.7992   -2.2277 C   0  0  0  0  0  0  0  0  0  0  0  0
    0.4339   -2.3237   -3.2663 O   0  0  0  0  0  0  0  0  0  0  0  0
   -1.0675   -2.0029   -1.6621 O   0  0  0  0  0  0  0  0  0  0  0  0
   -2.6172   -1.7290    2.6386 H   0  0  0  0  0  0  0  0  0  0  0  0
   -4.2704   -0.0646    1.8351 H   0  0  0  0  0  0  0  0  0  0  0  0
    4.2875    0.1190   -1.8528 H   0  0  0  0  0  0  0  0  0  0  0  0
    2.5645   -1.3299   -2.9231 H   0  0  0  0  0  0  0  0  0  0  0  0
   -4.8541    1.7951    0.3362 H   0  0  0  0  0  0  0  0  0  0  0  0
   -4.2297    3.3843   -1.4596 H   0  0  0  0  0  0  0  0  0  0  0  0
   -1.9375    3.3130   -2.4489 H   0  0  0  0  0  0  0  0  0  0  0  0
   -0.2886    1.6683   -1.6572 H   0  0  0  0  0  0  0  0  0  0  0  0
    0.3695    1.3301    1.9203 H   0  0  0  0  0  0  0  0  0  0  0  0
    2.0642    2.7706    2.9680 H   0  0  0  0  0  0  0  0  0  0  0  0
    4.3541    2.9524    1.9839 H   0  0  0  0  0  0  0  0  0  0  0  0
    4.9258    1.6772   -0.0620 H   0  0  0  0  0  0  0  0  0  0  0  0
    0.0509   -3.5522    2.9669 H   0  0  0  0  0  0  0  0  0  0  0  0
   -1.5543   -2.5963   -2.2542 H   0  0  0  0  0  0  0  0  0  0  0  0
  1  2  1  0  0  0  0
  1  6  2  0  0  0  0
  1 13  1  0  0  0  0
  2  3  2  0  0  0  0
  2 16  1  0  0  0  0
  3  4  1  0  0  0  0
  3  7  1  0  0  0  0
  4  5  2  0  0  0  0
  4 21  1  0  0  0  0
  5  6  1  0  0  0  0
  5 27  1  0  0  0  0
  6 28  1  0  0  0  0
  7  8  2  0  0  0  0
  7 12  1  0  0  0  0
  8  9  1  0  0  0  0
  8 17  1  0  0  0  0
  9 10  2  0  0  0  0
  9 20  1  0  0  0  0
 10 11  1  0  0  0  0
 10 29  1  0  0  0  0
 11 12  2  0  0  0  0
 11 30  1  0  0  0  0
 12 24  1  0  0  0  0
 13 14  2  0  0  0  0
 13 31  1  0  0  0  0
 14 15  1  0  0  0  0
 14 32  1  0  0  0  0
 15 16  2  0  0  0  0
 15 33  1  0  0  0  0
 16 34  1  0  0  0  0
 17 18  2  0  0  0  0
 17 35  1  0  0  0  0
 18 19  1  0  0  0  0
 18 36  1  0  0  0  0
 19 20  2  0  0  0  0
 19 37  1  0  0  0  0
 20 38  1  0  0  0  0
 21 22  2  0  0  0  0
 21 23  1  0  0  0  0
 23 39  1  0  0  0  0
 24 25  2  0  0  0  0
 24 26  1  0  0  0  0
 26 40  1  0  0  0  0
M  END
$$$$
