Title Card Required
 OpenBabel03192317573D

 36 39  0  0  0  0  0  0  0  0999 V2000
   -3.0336   -0.5515   -0.1799 C   0  0  0  0  0  0  0  0  0  0  0  0
   -1.7952    0.1547   -0.2334 C   0  0  0  0  0  0  0  0  0  0  0  0
   -0.6505   -0.3617    0.4497 C   0  0  0  0  0  0  0  0  0  0  0  0
   -0.7636   -1.5529    1.1455 C   0  0  0  0  0  0  0  0  0  0  0  0
   -1.9941   -2.2584    1.1915 C   0  0  0  0  0  0  0  0  0  0  0  0
   -3.0999   -1.7672    0.5491 C   0  0  0  0  0  0  0  0  0  0  0  0
    0.6506    0.3617    0.4497 C   0  0  0  0  0  0  0  0  0  0  0  0
    1.7953   -0.1547   -0.2334 C   0  0  0  0  0  0  0  0  0  0  0  0
    3.0336    0.5515   -0.1799 C   0  0  0  0  0  0  0  0  0  0  0  0
    3.0999    1.7672    0.5492 C   0  0  0  0  0  0  0  0  0  0  0  0
    1.9941    2.2583    1.1916 C   0  0  0  0  0  0  0  0  0  0  0  0
    0.7635    1.5528    1.1455 C   0  0  0  0  0  0  0  0  0  0  0  0
    0.3293   -2.0324    1.7838 O   0  0  0  0  0  0  0  0  0  0  0  0
   -0.3294    2.0323    1.7838 O   0  0  0  0  0  0  0  0  0  0  0  0
   -4.1689   -0.0294   -0.8570 C   0  0  0  0  0  0  0  0  0  0  0  0
   -4.0879    1.1421   -1.5667 C   0  0  0  0  0  0  0  0  0  0  0  0
   -2.8566    1.8409   -1.6311 C   0  0  0  0  0  0  0  0  0  0  0  0
   -1.7434    1.3633   -0.9839 C   0  0  0  0  0  0  0  0  0  0  0  0
    1.7434   -1.3633   -0.9840 C   0  0  0  0  0  0  0  0  0  0  0  0
    2.8567   -1.8408   -1.6311 C   0  0  0  0  0  0  0  0  0  0  0  0
    4.0880   -1.1420   -1.5667 C   0  0  0  0  0  0  0  0  0  0  0  0
    4.1689    0.0294   -0.8570 C   0  0  0  0  0  0  0  0  0  0  0  0
   -2.0476   -3.1941    1.7542 H   0  0  0  0  0  0  0  0  0  0  0  0
   -4.0466   -2.3095    0.5919 H   0  0  0  0  0  0  0  0  0  0  0  0
    4.0465    2.3096    0.5921 H   0  0  0  0  0  0  0  0  0  0  0  0
    2.0475    3.1941    1.7543 H   0  0  0  0  0  0  0  0  0  0  0  0
    0.1147   -2.8684    2.2106 H   0  0  0  0  0  0  0  0  0  0  0  0
   -0.1149    2.8683    2.2105 H   0  0  0  0  0  0  0  0  0  0  0  0
   -5.1089   -0.5829   -0.8020 H   0  0  0  0  0  0  0  0  0  0  0  0
   -4.9643    1.5357   -2.0834 H   0  0  0  0  0  0  0  0  0  0  0  0
   -2.7939    2.7679   -2.2034 H   0  0  0  0  0  0  0  0  0  0  0  0
   -0.7983    1.9047   -1.0415 H   0  0  0  0  0  0  0  0  0  0  0  0
    0.7983   -1.9047   -1.0416 H   0  0  0  0  0  0  0  0  0  0  0  0
    2.7940   -2.7678   -2.2035 H   0  0  0  0  0  0  0  0  0  0  0  0
    4.9643   -1.5355   -2.0835 H   0  0  0  0  0  0  0  0  0  0  0  0
    5.1090    0.5830   -0.8020 H   0  0  0  0  0  0  0  0  0  0  0  0
  1  2  1  0  0  0  0
  1  6  2  0  0  0  0
  1 15  1  0  0  0  0
  2  3  2  0  0  0  0
  2 18  1  0  0  0  0
  3  4  1  0  0  0  0
  3  7  1  0  0  0  0
  4  5  2  0  0  0  0
  4 13  1  0  0  0  0
  5  6  1  0  0  0  0
  5 23  1  0  0  0  0
  6 24  1  0  0  0  0
  7  8  2  0  0  0  0
  7 12  1  0  0  0  0
  8  9  1  0  0  0  0
  8 19  1  0  0  0  0
  9 10  2  0  0  0  0
  9 22  1  0  0  0  0
 10 11  1  0  0  0  0
 10 25  1  0  0  0  0
 11 12  2  0  0  0  0
 11 26  1  0  0  0  0
 12 14  1  0  0  0  0
 13 27  1  0  0  0  0
 14 28  1  0  0  0  0
 15 16  2  0  0  0  0
 15 29  1  0  0  0  0
 16 17  1  0  0  0  0
 16 30  1  0  0  0  0
 17 18  2  0  0  0  0
 17 31  1  0  0  0  0
 18 32  1  0  0  0  0
 19 20  2  0  0  0  0
 19 33  1  0  0  0  0
 20 21  1  0  0  0  0
 20 34  1  0  0  0  0
 21 22  2  0  0  0  0
 21 35  1  0  0  0  0
 22 36  1  0  0  0  0
M  END
$$$$
