Title Card Required
 OpenBabel03192317533D

 56 60  0  0  0  0  0  0  0  0999 V2000
    0.9897   -0.5266   -1.5631 O   0  0  0  0  0  0  0  0  0  0  0  0
    1.9266   -1.4546   -0.5075 P   0  0  0  0  0  0  0  0  0  0  0  0
    0.8832   -1.3439    0.8169 O   0  0  0  0  0  0  0  0  0  0  0  0
   -0.4333   -1.6721    0.6374 C   0  0  0  0  0  0  0  0  0  0  0  0
   -1.2943   -0.7629    0.0493 C   0  0  0  0  0  0  0  0  0  0  0  0
   -0.7659    0.5644   -0.3655 C   0  0  0  0  0  0  0  0  0  0  0  0
    0.3445    0.6150   -1.1925 C   0  0  0  0  0  0  0  0  0  0  0  0
   -0.8720   -2.9433    1.0810 C   0  0  0  0  0  0  0  0  0  0  0  0
   -2.1823   -3.3066    0.9187 C   0  0  0  0  0  0  0  0  0  0  0  0
   -3.1001   -2.4359    0.2700 C   0  0  0  0  0  0  0  0  0  0  0  0
   -4.4484   -2.8259    0.0442 C   0  0  0  0  0  0  0  0  0  0  0  0
   -5.3177   -2.0037   -0.6282 C   0  0  0  0  0  0  0  0  0  0  0  0
   -4.8672   -0.7529   -1.1155 C   0  0  0  0  0  0  0  0  0  0  0  0
   -3.5735   -0.3427   -0.9026 C   0  0  0  0  0  0  0  0  0  0  0  0
   -2.6532   -1.1605   -0.1876 C   0  0  0  0  0  0  0  0  0  0  0  0
    0.8397    1.8418   -1.7007 C   0  0  0  0  0  0  0  0  0  0  0  0
    0.2547    3.0234   -1.3320 C   0  0  0  0  0  0  0  0  0  0  0  0
   -0.8303    3.0367   -0.4134 C   0  0  0  0  0  0  0  0  0  0  0  0
   -1.4048    4.2596    0.0284 C   0  0  0  0  0  0  0  0  0  0  0  0
   -2.4271    4.2688    0.9441 C   0  0  0  0  0  0  0  0  0  0  0  0
   -2.9141    3.0454    1.4653 C   0  0  0  0  0  0  0  0  0  0  0  0
   -2.3875    1.8467    1.0490 C   0  0  0  0  0  0  0  0  0  0  0  0
   -1.3406    1.8006    0.0848 C   0  0  0  0  0  0  0  0  0  0  0  0
    3.1122   -0.4483    0.1151 N   0  0  0  0  0  0  0  0  0  0  0  0
    4.5192   -0.7772   -0.1861 C   0  0  0  0  0  0  0  0  0  0  0  0
    4.8920   -2.2047    0.2142 C   0  0  0  0  0  0  0  0  0  0  0  0
    4.8604   -0.4893   -1.6474 C   0  0  0  0  0  0  0  0  0  0  0  0
    2.8557    0.6894    1.0193 C   0  0  0  0  0  0  0  0  0  0  0  0
    3.2505    0.3363    2.4524 C   0  0  0  0  0  0  0  0  0  0  0  0
    3.5228    1.9787    0.5431 C   0  0  0  0  0  0  0  0  0  0  0  0
   -0.1426   -3.6014    1.5538 H   0  0  0  0  0  0  0  0  0  0  0  0
   -2.5346   -4.2792    1.2678 H   0  0  0  0  0  0  0  0  0  0  0  0
   -4.7761   -3.8017    0.4091 H   0  0  0  0  0  0  0  0  0  0  0  0
   -6.3489   -2.3151   -0.7999 H   0  0  0  0  0  0  0  0  0  0  0  0
   -5.5516   -0.1116   -1.6729 H   0  0  0  0  0  0  0  0  0  0  0  0
   -3.2359    0.6168   -1.2942 H   0  0  0  0  0  0  0  0  0  0  0  0
    1.6860    1.8006   -2.3874 H   0  0  0  0  0  0  0  0  0  0  0  0
    0.6266    3.9726   -1.7236 H   0  0  0  0  0  0  0  0  0  0  0  0
   -1.0078    5.1951   -0.3718 H   0  0  0  0  0  0  0  0  0  0  0  0
   -2.8577    5.2131    1.2799 H   0  0  0  0  0  0  0  0  0  0  0  0
   -3.7124    3.0551    2.2089 H   0  0  0  0  0  0  0  0  0  0  0  0
   -2.7652    0.9124    1.4651 H   0  0  0  0  0  0  0  0  0  0  0  0
    5.1200   -0.1027    0.4413 H   0  0  0  0  0  0  0  0  0  0  0  0
    4.3639   -2.9425   -0.4072 H   0  0  0  0  0  0  0  0  0  0  0  0
    5.9723   -2.3663    0.0863 H   0  0  0  0  0  0  0  0  0  0  0  0
    4.6316   -2.3890    1.2662 H   0  0  0  0  0  0  0  0  0  0  0  0
    4.6308    0.5555   -1.9007 H   0  0  0  0  0  0  0  0  0  0  0  0
    5.9259   -0.6730   -1.8494 H   0  0  0  0  0  0  0  0  0  0  0  0
    4.2699   -1.1394   -2.3126 H   0  0  0  0  0  0  0  0  0  0  0  0
    1.7699    0.8536    1.0069 H   0  0  0  0  0  0  0  0  0  0  0  0
    4.3305    0.1321    2.5290 H   0  0  0  0  0  0  0  0  0  0  0  0
    3.0176    1.1670    3.1343 H   0  0  0  0  0  0  0  0  0  0  0  0
    2.6984   -0.5545    2.7807 H   0  0  0  0  0  0  0  0  0  0  0  0
    3.2366    2.2106   -0.4912 H   0  0  0  0  0  0  0  0  0  0  0  0
    3.2020    2.8159    1.1797 H   0  0  0  0  0  0  0  0  0  0  0  0
    4.6206    1.9226    0.5996 H   0  0  0  0  0  0  0  0  0  0  0  0
  1  2  1  0  0  0  0
  1  7  1  0  0  0  0
  2  3  1  0  0  0  0
  2 24  1  0  0  0  0
  3  4  1  0  0  0  0
  4  5  2  0  0  0  0
  4  8  1  0  0  0  0
  5  6  1  0  0  0  0
  5 15  1  0  0  0  0
  6  7  2  0  0  0  0
  6 23  1  0  0  0  0
  7 16  1  0  0  0  0
  8  9  2  0  0  0  0
  8 31  1  0  0  0  0
  9 10  1  0  0  0  0
  9 32  1  0  0  0  0
 10 11  2  0  0  0  0
 10 15  1  0  0  0  0
 11 12  1  0  0  0  0
 11 33  1  0  0  0  0
 12 13  2  0  0  0  0
 12 34  1  0  0  0  0
 13 14  1  0  0  0  0
 13 35  1  0  0  0  0
 14 15  2  0  0  0  0
 14 36  1  0  0  0  0
 16 17  2  0  0  0  0
 16 37  1  0  0  0  0
 17 18  1  0  0  0  0
 17 38  1  0  0  0  0
 18 19  2  0  0  0  0
 18 23  1  0  0  0  0
 19 20  1  0  0  0  0
 19 39  1  0  0  0  0
 20 21  2  0  0  0  0
 20 40  1  0  0  0  0
 21 22  1  0  0  0  0
 21 41  1  0  0  0  0
 22 23  2  0  0  0  0
 22 42  1  0  0  0  0
 24 25  1  0  0  0  0
 24 28  1  0  0  0  0
 25 26  1  0  0  0  0
 25 27  1  0  0  0  0
 25 43  1  0  0  0  0
 26 44  1  0  0  0  0
 26 45  1  0  0  0  0
 26 46  1  0  0  0  0
 27 47  1  0  0  0  0
 27 48  1  0  0  0  0
 27 49  1  0  0  0  0
 28 29  1  0  0  0  0
 28 30  1  0  0  0  0
 28 50  1  0  0  0  0
 29 51  1  0  0  0  0
 29 52  1  0  0  0  0
 29 53  1  0  0  0  0
 30 54  1  0  0  0  0
 30 55  1  0  0  0  0
 30 56  1  0  0  0  0
M  END
$$$$
