Title Card Required
 OpenBabel03192317483D

 38 41  0  0  0  0  0  0  0  0999 V2000
    1.7353   -1.3394    1.0185 C   0  0  0  0  0  0  0  0  0  0  0  0
    1.7913   -0.1393    0.2531 C   0  0  0  0  0  0  0  0  0  0  0  0
    3.0364    0.5535    0.1845 C   0  0  0  0  0  0  0  0  0  0  0  0
    4.1694    0.0343    0.8633 C   0  0  0  0  0  0  0  0  0  0  0  0
    4.0849   -1.1288    1.5895 C   0  0  0  0  0  0  0  0  0  0  0  0
    2.8500   -1.8173    1.6658 C   0  0  0  0  0  0  0  0  0  0  0  0
    0.6472    0.3705   -0.4403 C   0  0  0  0  0  0  0  0  0  0  0  0
    0.7512    1.5607   -1.1608 C   0  0  0  0  0  0  0  0  0  0  0  0
    2.0020    2.2486   -1.2114 C   0  0  0  0  0  0  0  0  0  0  0  0
    3.1031    1.7583   -0.5672 C   0  0  0  0  0  0  0  0  0  0  0  0
   -0.6472   -0.3704   -0.4403 C   0  0  0  0  0  0  0  0  0  0  0  0
   -1.7913    0.1393    0.2531 C   0  0  0  0  0  0  0  0  0  0  0  0
   -3.0364   -0.5534    0.1844 C   0  0  0  0  0  0  0  0  0  0  0  0
   -3.1031   -1.7583   -0.5673 C   0  0  0  0  0  0  0  0  0  0  0  0
   -2.0019   -2.2486   -1.2115 C   0  0  0  0  0  0  0  0  0  0  0  0
   -0.7512   -1.5607   -1.1608 C   0  0  0  0  0  0  0  0  0  0  0  0
   -1.7354    1.3394    1.0186 C   0  0  0  0  0  0  0  0  0  0  0  0
   -2.8500    1.8172    1.6658 C   0  0  0  0  0  0  0  0  0  0  0  0
   -4.0849    1.1287    1.5895 C   0  0  0  0  0  0  0  0  0  0  0  0
   -4.1694   -0.0343    0.8633 C   0  0  0  0  0  0  0  0  0  0  0  0
   -0.3337    2.1154   -1.7968 N   0  0  0  0  0  0  0  0  0  0  0  0
    0.3338   -2.1154   -1.7967 N   0  0  0  0  0  0  0  0  0  0  0  0
    0.7871   -1.8749    1.0854 H   0  0  0  0  0  0  0  0  0  0  0  0
    5.1125    0.5818    0.7980 H   0  0  0  0  0  0  0  0  0  0  0  0
    4.9606   -1.5208    2.1084 H   0  0  0  0  0  0  0  0  0  0  0  0
    2.7823   -2.7375    2.2487 H   0  0  0  0  0  0  0  0  0  0  0  0
    2.0632    3.1801   -1.7785 H   0  0  0  0  0  0  0  0  0  0  0  0
    4.0534    2.2938   -0.6223 H   0  0  0  0  0  0  0  0  0  0  0  0
   -4.0534   -2.2938   -0.6225 H   0  0  0  0  0  0  0  0  0  0  0  0
   -2.0631   -3.1801   -1.7785 H   0  0  0  0  0  0  0  0  0  0  0  0
   -0.7871    1.8748    1.0855 H   0  0  0  0  0  0  0  0  0  0  0  0
   -2.7823    2.7374    2.2488 H   0  0  0  0  0  0  0  0  0  0  0  0
   -4.9606    1.5207    2.1084 H   0  0  0  0  0  0  0  0  0  0  0  0
   -5.1125   -0.5818    0.7979 H   0  0  0  0  0  0  0  0  0  0  0  0
   -1.1565    1.5380   -1.9147 H   0  0  0  0  0  0  0  0  0  0  0  0
   -0.1623    2.8022   -2.5166 H   0  0  0  0  0  0  0  0  0  0  0  0
    1.1566   -1.5379   -1.9146 H   0  0  0  0  0  0  0  0  0  0  0  0
    0.1624   -2.8019   -2.5168 H   0  0  0  0  0  0  0  0  0  0  0  0
  1  2  2  0  0  0  0
  1  6  1  0  0  0  0
  1 23  1  0  0  0  0
  2  3  1  0  0  0  0
  2  7  1  0  0  0  0
  3  4  2  0  0  0  0
  3 10  1  0  0  0  0
  4  5  1  0  0  0  0
  4 24  1  0  0  0  0
  5  6  2  0  0  0  0
  5 25  1  0  0  0  0
  6 26  1  0  0  0  0
  7  8  2  0  0  0  0
  7 11  1  0  0  0  0
  8  9  1  0  0  0  0
  8 21  1  0  0  0  0
  9 10  2  0  0  0  0
  9 27  1  0  0  0  0
 10 28  1  0  0  0  0
 11 12  2  0  0  0  0
 11 16  1  0  0  0  0
 12 13  1  0  0  0  0
 12 17  1  0  0  0  0
 13 14  2  0  0  0  0
 13 20  1  0  0  0  0
 14 15  1  0  0  0  0
 14 29  1  0  0  0  0
 15 16  2  0  0  0  0
 15 30  1  0  0  0  0
 16 22  1  0  0  0  0
 17 18  2  0  0  0  0
 17 31  1  0  0  0  0
 18 19  1  0  0  0  0
 18 32  1  0  0  0  0
 19 20  2  0  0  0  0
 19 33  1  0  0  0  0
 20 34  1  0  0  0  0
 21 35  1  0  0  0  0
 21 36  1  0  0  0  0
 22 37  1  0  0  0  0
 22 38  1  0  0  0  0
M  END
$$$$
