Title Card Required
 OpenBabel03192317533D

 66 71  0  0  0  0  0  0  0  0999 V2000
    1.3846    0.3885   -1.5412 P   0  0  0  0  0  0  0  0  0  0  0  0
    1.2778    1.7449   -0.2772 C   0  0  0  0  0  0  0  0  0  0  0  0
    2.0141    1.7630    0.9155 C   0  0  0  0  0  0  0  0  0  0  0  0
    1.9716    2.8701    1.7618 C   0  0  0  0  0  0  0  0  0  0  0  0
    1.1956    3.9798    1.4288 C   0  0  0  0  0  0  0  0  0  0  0  0
    0.4807    3.9846    0.2328 C   0  0  0  0  0  0  0  0  0  0  0  0
    0.5360    2.8838   -0.6205 C   0  0  0  0  0  0  0  0  0  0  0  0
    3.0226   -0.3226   -1.0542 C   0  0  0  0  0  0  0  0  0  0  0  0
    3.2020   -1.3168   -0.0817 C   0  0  0  0  0  0  0  0  0  0  0  0
    4.4825   -1.7392    0.2719 C   0  0  0  0  0  0  0  0  0  0  0  0
    5.6023   -1.1729   -0.3383 C   0  0  0  0  0  0  0  0  0  0  0  0
    5.4352   -0.1872   -1.3094 C   0  0  0  0  0  0  0  0  0  0  0  0
    4.1532    0.2291   -1.6682 C   0  0  0  0  0  0  0  0  0  0  0  0
   -0.9409   -0.9989   -0.4189 C   0  0  0  0  0  0  0  0  0  0  0  0
    0.2717   -1.0329   -1.0908 C   0  0  0  0  0  0  0  0  0  0  0  0
    0.6972   -2.2622   -1.6876 C   0  0  0  0  0  0  0  0  0  0  0  0
   -0.0283   -3.4135   -1.5592 C   0  0  0  0  0  0  0  0  0  0  0  0
   -1.2563   -3.4187   -0.8448 C   0  0  0  0  0  0  0  0  0  0  0  0
   -2.0212   -4.6050   -0.6938 C   0  0  0  0  0  0  0  0  0  0  0  0
   -3.2150   -4.5881   -0.0147 C   0  0  0  0  0  0  0  0  0  0  0  0
   -3.6926   -3.3760    0.5376 C   0  0  0  0  0  0  0  0  0  0  0  0
   -2.9710   -2.2134    0.4063 C   0  0  0  0  0  0  0  0  0  0  0  0
   -1.7271   -2.1985   -0.2842 C   0  0  0  0  0  0  0  0  0  0  0  0
   -1.4962    0.2604    0.1550 C   0  0  0  0  0  0  0  0  0  0  0  0
   -1.5319    0.4410    1.5264 C   0  0  0  0  0  0  0  0  0  0  0  0
   -2.0732    1.6241    2.0914 C   0  0  0  0  0  0  0  0  0  0  0  0
   -2.5942    2.6016    1.2843 C   0  0  0  0  0  0  0  0  0  0  0  0
   -2.6063    2.4445   -0.1271 C   0  0  0  0  0  0  0  0  0  0  0  0
   -3.1187    3.4565   -0.9821 C   0  0  0  0  0  0  0  0  0  0  0  0
   -3.1053    3.3010   -2.3472 C   0  0  0  0  0  0  0  0  0  0  0  0
   -2.5950    2.1086   -2.9162 C   0  0  0  0  0  0  0  0  0  0  0  0
   -2.0939    1.1096   -2.1155 C   0  0  0  0  0  0  0  0  0  0  0  0
   -2.0660    1.2554   -0.6991 C   0  0  0  0  0  0  0  0  0  0  0  0
   -1.1238   -0.5426    2.3740 O   0  0  0  0  0  0  0  0  0  0  0  0
    0.2833   -0.7865    2.4942 C   0  0  0  0  0  0  0  0  0  0  0  0
    0.8267    0.0090    3.6687 C   0  0  0  0  0  0  0  0  0  0  0  0
    0.4751   -2.2833    2.6412 C   0  0  0  0  0  0  0  0  0  0  0  0
    2.6432    0.9128    1.1851 H   0  0  0  0  0  0  0  0  0  0  0  0
    2.5538    2.8642    2.6852 H   0  0  0  0  0  0  0  0  0  0  0  0
    1.1626    4.8454    2.0925 H   0  0  0  0  0  0  0  0  0  0  0  0
   -0.1203    4.8517   -0.0480 H   0  0  0  0  0  0  0  0  0  0  0  0
   -0.0124    2.9075   -1.5657 H   0  0  0  0  0  0  0  0  0  0  0  0
    2.3324   -1.7700    0.4006 H   0  0  0  0  0  0  0  0  0  0  0  0
    4.6061   -2.5143    1.0304 H   0  0  0  0  0  0  0  0  0  0  0  0
    6.6039   -1.5040   -0.0597 H   0  0  0  0  0  0  0  0  0  0  0  0
    6.3054    0.2564   -1.7958 H   0  0  0  0  0  0  0  0  0  0  0  0
    4.0251    0.9976   -2.4345 H   0  0  0  0  0  0  0  0  0  0  0  0
    1.6311   -2.2820   -2.2534 H   0  0  0  0  0  0  0  0  0  0  0  0
    0.3256   -4.3419   -2.0126 H   0  0  0  0  0  0  0  0  0  0  0  0
   -1.6406   -5.5308   -1.1305 H   0  0  0  0  0  0  0  0  0  0  0  0
   -3.7968   -5.5042    0.0972 H   0  0  0  0  0  0  0  0  0  0  0  0
   -4.6423   -3.3641    1.0744 H   0  0  0  0  0  0  0  0  0  0  0  0
   -3.3507   -1.2874    0.8376 H   0  0  0  0  0  0  0  0  0  0  0  0
   -2.0686    1.7154    3.1781 H   0  0  0  0  0  0  0  0  0  0  0  0
   -3.0055    3.5159    1.7171 H   0  0  0  0  0  0  0  0  0  0  0  0
   -3.5217    4.3662   -0.5311 H   0  0  0  0  0  0  0  0  0  0  0  0
   -3.4952    4.0875   -2.9948 H   0  0  0  0  0  0  0  0  0  0  0  0
   -2.6008    1.9815   -3.9997 H   0  0  0  0  0  0  0  0  0  0  0  0
   -1.7015    0.1955   -2.5634 H   0  0  0  0  0  0  0  0  0  0  0  0
    0.7719   -0.4453    1.5679 H   0  0  0  0  0  0  0  0  0  0  0  0
    0.3638   -0.3368    4.6050 H   0  0  0  0  0  0  0  0  0  0  0  0
    1.9177   -0.1121    3.7480 H   0  0  0  0  0  0  0  0  0  0  0  0
    0.6086    1.0790    3.5385 H   0  0  0  0  0  0  0  0  0  0  0  0
    0.1244   -2.8070    1.7400 H   0  0  0  0  0  0  0  0  0  0  0  0
    1.5366   -2.5203    2.8046 H   0  0  0  0  0  0  0  0  0  0  0  0
   -0.1020   -2.6505    3.5024 H   0  0  0  0  0  0  0  0  0  0  0  0
  1  2  1  0  0  0  0
  1  8  1  0  0  0  0
  1 15  1  0  0  0  0
  2  3  2  0  0  0  0
  2  7  1  0  0  0  0
  3  4  1  0  0  0  0
  3 38  1  0  0  0  0
  4  5  2  0  0  0  0
  4 39  1  0  0  0  0
  5  6  1  0  0  0  0
  5 40  1  0  0  0  0
  6  7  2  0  0  0  0
  6 41  1  0  0  0  0
  7 42  1  0  0  0  0
  8  9  2  0  0  0  0
  8 13  1  0  0  0  0
  9 10  1  0  0  0  0
  9 43  1  0  0  0  0
 10 11  2  0  0  0  0
 10 44  1  0  0  0  0
 11 12  1  0  0  0  0
 11 45  1  0  0  0  0
 12 13  2  0  0  0  0
 12 46  1  0  0  0  0
 13 47  1  0  0  0  0
 14 15  2  0  0  0  0
 14 23  1  0  0  0  0
 14 24  1  0  0  0  0
 15 16  1  0  0  0  0
 16 17  2  0  0  0  0
 16 48  1  0  0  0  0
 17 18  1  0  0  0  0
 17 49  1  0  0  0  0
 18 19  2  0  0  0  0
 18 23  1  0  0  0  0
 19 20  1  0  0  0  0
 19 50  1  0  0  0  0
 20 21  2  0  0  0  0
 20 51  1  0  0  0  0
 21 22  1  0  0  0  0
 21 52  1  0  0  0  0
 22 23  2  0  0  0  0
 22 53  1  0  0  0  0
 24 25  2  0  0  0  0
 24 33  1  0  0  0  0
 25 26  1  0  0  0  0
 25 34  1  0  0  0  0
 26 27  2  0  0  0  0
 26 54  1  0  0  0  0
 27 28  1  0  0  0  0
 27 55  1  0  0  0  0
 28 29  2  0  0  0  0
 28 33  1  0  0  0  0
 29 30  1  0  0  0  0
 29 56  1  0  0  0  0
 30 31  2  0  0  0  0
 30 57  1  0  0  0  0
 31 32  1  0  0  0  0
 31 58  1  0  0  0  0
 32 33  2  0  0  0  0
 32 59  1  0  0  0  0
 34 35  1  0  0  0  0
 35 36  1  0  0  0  0
 35 37  1  0  0  0  0
 35 60  1  0  0  0  0
 36 61  1  0  0  0  0
 36 62  1  0  0  0  0
 36 63  1  0  0  0  0
 37 64  1  0  0  0  0
 37 65  1  0  0  0  0
 37 66  1  0  0  0  0
M  END
$$$$
