Title Card Required
 OpenBabel03192317563D

 49 54  0  0  1  0  0  0  0  0999 V2000
   -2.5658   -1.6440    0.1139 C   0  0  1  0  0  0  0  0  0  0  0  0
   -3.0087   -0.8149   -1.1284 C   0  0  2  0  0  0  0  0  0  0  0  0
   -1.9350    0.1559   -1.3380 N   0  0  0  0  0  0  0  0  0  0  0  0
   -1.1768    0.0627   -0.3287 C   0  0  0  0  0  0  0  0  0  0  0  0
   -1.4579   -0.8797    0.6053 O   0  0  0  0  0  0  0  0  0  0  0  0
   -0.0003    0.9447   -0.0013 C   0  0  0  0  0  0  0  0  0  0  0  0
    1.1761    0.0631    0.3276 C   0  0  0  0  0  0  0  0  0  0  0  0
    1.9344    0.1580    1.3365 N   0  0  0  0  0  0  0  0  0  0  0  0
    3.0080   -0.8132    1.1287 C   0  0  1  0  0  0  0  0  0  0  0  0
    2.5657   -1.6436   -0.1130 C   0  0  1  0  0  0  0  0  0  0  0  0
    1.4570   -0.8809   -0.6049 O   0  0  0  0  0  0  0  0  0  0  0  0
    0.3585    1.8065   -1.2171 C   0  0  0  0  0  0  0  0  0  0  0  0
   -0.3591    1.8086    1.2130 C   0  0  0  0  0  0  0  0  0  0  0  0
    3.7303   -1.6502   -1.1111 C   0  0  0  0  0  0  0  0  0  0  0  0
    4.6677   -0.5825   -0.5954 C   0  0  0  0  0  0  0  0  0  0  0  0
    4.2857   -0.1425    0.6733 C   0  0  0  0  0  0  0  0  0  0  0  0
   -4.2857   -0.1432   -0.6726 C   0  0  0  0  0  0  0  0  0  0  0  0
   -4.6673   -0.5825    0.5965 C   0  0  0  0  0  0  0  0  0  0  0  0
   -3.7304   -1.6507    1.1118 C   0  0  0  0  0  0  0  0  0  0  0  0
    5.7988   -0.0460   -1.2097 C   0  0  0  0  0  0  0  0  0  0  0  0
    6.5323    0.9344   -0.5413 C   0  0  0  0  0  0  0  0  0  0  0  0
    6.1402    1.3775    0.7257 C   0  0  0  0  0  0  0  0  0  0  0  0
    5.0093    0.8425    1.3406 C   0  0  0  0  0  0  0  0  0  0  0  0
   -5.0091    0.8420   -1.3399 C   0  0  0  0  0  0  0  0  0  0  0  0
   -6.1393    1.3780   -0.7245 C   0  0  0  0  0  0  0  0  0  0  0  0
   -6.5309    0.9356    0.5429 C   0  0  0  0  0  0  0  0  0  0  0  0
   -5.7977   -0.0450    1.2112 C   0  0  0  0  0  0  0  0  0  0  0  0
   -2.1960   -2.6512   -0.1231 H   0  0  0  0  0  0  0  0  0  0  0  0
   -3.1592   -1.4180   -2.0360 H   0  0  0  0  0  0  0  0  0  0  0  0
    3.1576   -1.4153    2.0372 H   0  0  0  0  0  0  0  0  0  0  0  0
    2.1971   -2.6511    0.1250 H   0  0  0  0  0  0  0  0  0  0  0  0
   -0.5045    2.4231   -1.4981 H   0  0  0  0  0  0  0  0  0  0  0  0
    1.2099    2.4545   -0.9665 H   0  0  0  0  0  0  0  0  0  0  0  0
    0.6220    1.1748   -2.0746 H   0  0  0  0  0  0  0  0  0  0  0  0
   -1.2102    2.4565    0.9613 H   0  0  0  0  0  0  0  0  0  0  0  0
   -0.6229    1.1783    2.0715 H   0  0  0  0  0  0  0  0  0  0  0  0
    0.5042    2.4254    1.4931 H   0  0  0  0  0  0  0  0  0  0  0  0
    4.2234   -2.6347   -1.1251 H   0  0  0  0  0  0  0  0  0  0  0  0
    3.3648   -1.4507   -2.1287 H   0  0  0  0  0  0  0  0  0  0  0  0
   -4.2239   -2.6351    1.1248 H   0  0  0  0  0  0  0  0  0  0  0  0
   -3.3652   -1.4523    2.1297 H   0  0  0  0  0  0  0  0  0  0  0  0
    6.1046   -0.3824   -2.2025 H   0  0  0  0  0  0  0  0  0  0  0  0
    7.4168    1.3646   -1.0139 H   0  0  0  0  0  0  0  0  0  0  0  0
    6.7193    2.1518    1.2313 H   0  0  0  0  0  0  0  0  0  0  0  0
    4.6821    1.1942    2.3206 H   0  0  0  0  0  0  0  0  0  0  0  0
   -4.6821    1.1931   -2.3202 H   0  0  0  0  0  0  0  0  0  0  0  0
   -6.7181    2.1525   -1.2302 H   0  0  0  0  0  0  0  0  0  0  0  0
   -7.4148    1.3667    1.0158 H   0  0  0  0  0  0  0  0  0  0  0  0
   -6.1031   -0.3807    2.2043 H   0  0  0  0  0  0  0  0  0  0  0  0
  1  2  1  0  0  0  0
  1  5  1  0  0  0  0
  1 19  1  0  0  0  0
  1 28  1  6  0  0  0
  2  3  1  0  0  0  0
  2 17  1  0  0  0  0
  2 29  1  6  0  0  0
  3  4  2  0  0  0  0
  4  5  1  0  0  0  0
  4  6  1  0  0  0  0
  6  7  1  0  0  0  0
  6 12  1  0  0  0  0
  6 13  1  0  0  0  0
  7  8  2  0  0  0  0
  7 11  1  0  0  0  0
  8  9  1  0  0  0  0
  9 10  1  0  0  0  0
  9 16  1  0  0  0  0
  9 30  1  1  0  0  0
 10 11  1  0  0  0  0
 10 14  1  0  0  0  0
 10 31  1  1  0  0  0
 12 32  1  0  0  0  0
 12 33  1  0  0  0  0
 12 34  1  0  0  0  0
 13 35  1  0  0  0  0
 13 36  1  0  0  0  0
 13 37  1  0  0  0  0
 14 15  1  0  0  0  0
 14 38  1  0  0  0  0
 14 39  1  0  0  0  0
 15 16  2  0  0  0  0
 15 20  1  0  0  0  0
 16 23  1  0  0  0  0
 17 18  2  0  0  0  0
 17 24  1  0  0  0  0
 18 19  1  0  0  0  0
 18 27  1  0  0  0  0
 19 40  1  0  0  0  0
 19 41  1  0  0  0  0
 20 21  2  0  0  0  0
 20 42  1  0  0  0  0
 21 22  1  0  0  0  0
 21 43  1  0  0  0  0
 22 23  2  0  0  0  0
 22 44  1  0  0  0  0
 23 45  1  0  0  0  0
 24 25  2  0  0  0  0
 24 46  1  0  0  0  0
 25 26  1  0  0  0  0
 25 47  1  0  0  0  0
 26 27  2  0  0  0  0
 26 48  1  0  0  0  0
 27 49  1  0  0  0  0
M  END
$$$$
