Title Card Required
 OpenBabel03192317513D

110117  0  0  0  0  0  0  0  0999 V2000
    0.5610   -1.7515   -0.3462 C   0  0  0  0  0  0  0  0  0  0  0  0
    1.7309   -1.0450   -0.6729 C   0  0  0  0  0  0  0  0  0  0  0  0
    2.3929   -1.3481   -1.8695 C   0  0  0  0  0  0  0  0  0  0  0  0
    1.9051   -2.3374   -2.7103 C   0  0  0  0  0  0  0  0  0  0  0  0
    0.7512   -3.0603   -2.3885 C   0  0  0  0  0  0  0  0  0  0  0  0
    0.2702   -4.1425   -3.3317 C   0  0  0  0  0  0  0  0  0  0  0  0
   -0.6357   -5.1601   -2.6490 C   0  0  0  0  0  0  0  0  0  0  0  0
   -1.7393   -4.4273   -1.8942 C   0  0  0  0  0  0  0  0  0  0  0  0
   -1.1553   -3.5617   -0.7816 C   0  0  0  0  0  0  0  0  0  0  0  0
    0.0675   -2.7645   -1.1984 C   0  0  0  0  0  0  0  0  0  0  0  0
   -0.1546   -1.5145    0.9525 C   0  0  0  0  0  0  0  0  0  0  0  0
   -1.2730   -0.6705    1.0325 C   0  0  0  0  0  0  0  0  0  0  0  0
   -1.9633   -0.5753    2.2499 C   0  0  0  0  0  0  0  0  0  0  0  0
   -1.5479   -1.2966    3.3549 C   0  0  0  0  0  0  0  0  0  0  0  0
   -0.4271   -2.1354    3.2912 C   0  0  0  0  0  0  0  0  0  0  0  0
   -0.0143   -2.9022    4.5297 C   0  0  0  0  0  0  0  0  0  0  0  0
    0.8795   -4.0951    4.2159 C   0  0  0  0  0  0  0  0  0  0  0  0
    2.0205   -3.6430    3.3126 C   0  0  0  0  0  0  0  0  0  0  0  0
    1.4861   -3.1552    1.9690 C   0  0  0  0  0  0  0  0  0  0  0  0
    0.2807   -2.2421    2.0868 C   0  0  0  0  0  0  0  0  0  0  0  0
   -1.8562    0.2747   -0.4585 P   0  0  0  0  0  0  0  0  0  0  0  0
   -3.6302   -0.2572   -0.5145 C   0  0  0  0  0  0  0  0  0  0  0  0
   -4.6541    0.2879    0.2726 C   0  0  0  0  0  0  0  0  0  0  0  0
   -5.9599   -0.1967    0.1886 C   0  0  0  0  0  0  0  0  0  0  0  0
   -6.2327   -1.2443   -0.7016 C   0  0  0  0  0  0  0  0  0  0  0  0
   -5.2391   -1.7991   -1.5075 C   0  0  0  0  0  0  0  0  0  0  0  0
   -3.9407   -1.2813   -1.4119 C   0  0  0  0  0  0  0  0  0  0  0  0
   -5.5388   -2.9320   -2.4546 C   0  0  0  0  0  0  0  0  0  0  0  0
   -7.0613    0.3804    1.0399 C   0  0  0  0  0  0  0  0  0  0  0  0
   -2.0176    1.9783    0.2298 C   0  0  0  0  0  0  0  0  0  0  0  0
   -1.3103    2.4157    1.3470 C   0  0  0  0  0  0  0  0  0  0  0  0
   -1.3812    3.7511    1.7719 C   0  0  0  0  0  0  0  0  0  0  0  0
   -2.1572    4.6476    1.0423 C   0  0  0  0  0  0  0  0  0  0  0  0
   -2.8646    4.2409   -0.1003 C   0  0  0  0  0  0  0  0  0  0  0  0
   -2.7879    2.9072   -0.4915 C   0  0  0  0  0  0  0  0  0  0  0  0
   -3.6706    5.2410   -0.8884 C   0  0  0  0  0  0  0  0  0  0  0  0
   -0.6138    4.1772    2.9952 C   0  0  0  0  0  0  0  0  0  0  0  0
    2.3800    0.2252    0.5136 P   0  0  0  0  0  0  0  0  0  0  0  0
    4.1494    0.3044   -0.0170 C   0  0  0  0  0  0  0  0  0  0  0  0
    4.6642    1.2626   -0.8943 C   0  0  0  0  0  0  0  0  0  0  0  0
    6.0186    1.2580   -1.2493 C   0  0  0  0  0  0  0  0  0  0  0  0
    6.8495    0.2725   -0.7114 C   0  0  0  0  0  0  0  0  0  0  0  0
    6.3628   -0.6987    0.1706 C   0  0  0  0  0  0  0  0  0  0  0  0
    5.0109   -0.6616    0.5177 C   0  0  0  0  0  0  0  0  0  0  0  0
    7.2847   -1.7516    0.7296 C   0  0  0  0  0  0  0  0  0  0  0  0
    6.5677    2.2794   -2.2126 C   0  0  0  0  0  0  0  0  0  0  0  0
    1.7113    1.7800   -0.2155 C   0  0  0  0  0  0  0  0  0  0  0  0
    1.9390    2.9770    0.4843 C   0  0  0  0  0  0  0  0  0  0  0  0
    1.4128    4.1844    0.0304 C   0  0  0  0  0  0  0  0  0  0  0  0
    0.6091    4.1746   -1.1195 C   0  0  0  0  0  0  0  0  0  0  0  0
    0.3680    3.0044   -1.8326 C   0  0  0  0  0  0  0  0  0  0  0  0
    0.9487    1.8090   -1.3809 C   0  0  0  0  0  0  0  0  0  0  0  0
   -0.5160    2.9897   -3.0506 C   0  0  0  0  0  0  0  0  0  0  0  0
    1.6500    5.4780    0.7637 C   0  0  0  0  0  0  0  0  0  0  0  0
    3.3032   -0.8090   -2.1382 H   0  0  0  0  0  0  0  0  0  0  0  0
    2.4370   -2.5707   -3.6361 H   0  0  0  0  0  0  0  0  0  0  0  0
    1.1415   -4.6336   -3.7905 H   0  0  0  0  0  0  0  0  0  0  0  0
   -0.2840   -3.6666   -4.1603 H   0  0  0  0  0  0  0  0  0  0  0  0
   -0.0462   -5.7647   -1.9387 H   0  0  0  0  0  0  0  0  0  0  0  0
   -1.0559   -5.8540   -3.3916 H   0  0  0  0  0  0  0  0  0  0  0  0
   -2.2929   -3.7915   -2.6073 H   0  0  0  0  0  0  0  0  0  0  0  0
   -2.4689   -5.1327   -1.4698 H   0  0  0  0  0  0  0  0  0  0  0  0
   -1.9257   -2.8847   -0.3844 H   0  0  0  0  0  0  0  0  0  0  0  0
   -0.8716   -4.2010    0.0746 H   0  0  0  0  0  0  0  0  0  0  0  0
   -2.8386    0.0731    2.3237 H   0  0  0  0  0  0  0  0  0  0  0  0
   -2.1030   -1.2222    4.2934 H   0  0  0  0  0  0  0  0  0  0  0  0
   -0.9172   -3.2152    5.0758 H   0  0  0  0  0  0  0  0  0  0  0  0
    0.5277   -2.2148    5.2031 H   0  0  0  0  0  0  0  0  0  0  0  0
    0.2934   -4.8767    3.7027 H   0  0  0  0  0  0  0  0  0  0  0  0
    1.2620   -4.5378    5.1472 H   0  0  0  0  0  0  0  0  0  0  0  0
    2.5626   -2.8202    3.8094 H   0  0  0  0  0  0  0  0  0  0  0  0
    2.7474   -4.4523    3.1514 H   0  0  0  0  0  0  0  0  0  0  0  0
    2.2812   -2.6366    1.4143 H   0  0  0  0  0  0  0  0  0  0  0  0
    1.2101   -4.0196    1.3375 H   0  0  0  0  0  0  0  0  0  0  0  0
   -4.4345    1.1165    0.9513 H   0  0  0  0  0  0  0  0  0  0  0  0
   -7.2549   -1.6274   -0.7748 H   0  0  0  0  0  0  0  0  0  0  0  0
   -3.1543   -1.6777   -2.0619 H   0  0  0  0  0  0  0  0  0  0  0  0
   -5.1704   -3.8873   -2.0493 H   0  0  0  0  0  0  0  0  0  0  0  0
   -6.6181   -3.0351   -2.6279 H   0  0  0  0  0  0  0  0  0  0  0  0
   -5.0461   -2.7773   -3.4252 H   0  0  0  0  0  0  0  0  0  0  0  0
   -7.9278    0.6656    0.4258 H   0  0  0  0  0  0  0  0  0  0  0  0
   -7.4128   -0.3558    1.7787 H   0  0  0  0  0  0  0  0  0  0  0  0
   -6.7196    1.2698    1.5848 H   0  0  0  0  0  0  0  0  0  0  0  0
   -0.6845    1.7170    1.9081 H   0  0  0  0  0  0  0  0  0  0  0  0
   -2.2175    5.6918    1.3646 H   0  0  0  0  0  0  0  0  0  0  0  0
   -3.3421    2.5799   -1.3772 H   0  0  0  0  0  0  0  0  0  0  0  0
   -4.3936    5.7648   -0.2460 H   0  0  0  0  0  0  0  0  0  0  0  0
   -3.0157    6.0065   -1.3329 H   0  0  0  0  0  0  0  0  0  0  0  0
   -4.2245    4.7546   -1.7021 H   0  0  0  0  0  0  0  0  0  0  0  0
   -0.7414    5.2483    3.2023 H   0  0  0  0  0  0  0  0  0  0  0  0
   -0.9434    3.6141    3.8810 H   0  0  0  0  0  0  0  0  0  0  0  0
    0.4602    3.9741    2.8621 H   0  0  0  0  0  0  0  0  0  0  0  0
    4.0037    2.0259   -1.3134 H   0  0  0  0  0  0  0  0  0  0  0  0
    7.9106    0.2643   -0.9797 H   0  0  0  0  0  0  0  0  0  0  0  0
    4.6195   -1.3993    1.2256 H   0  0  0  0  0  0  0  0  0  0  0  0
    7.6191   -2.4400   -0.0612 H   0  0  0  0  0  0  0  0  0  0  0  0
    8.1839   -1.2969    1.1698 H   0  0  0  0  0  0  0  0  0  0  0  0
    6.7859   -2.3459    1.5060 H   0  0  0  0  0  0  0  0  0  0  0  0
    7.5332    2.6737   -1.8654 H   0  0  0  0  0  0  0  0  0  0  0  0
    6.7325    1.8324   -3.2051 H   0  0  0  0  0  0  0  0  0  0  0  0
    5.8742    3.1213   -2.3358 H   0  0  0  0  0  0  0  0  0  0  0  0
    2.5381    2.9610    1.4007 H   0  0  0  0  0  0  0  0  0  0  0  0
    0.1522    5.1103   -1.4564 H   0  0  0  0  0  0  0  0  0  0  0  0
    0.7580    0.8879   -1.9347 H   0  0  0  0  0  0  0  0  0  0  0  0
   -1.1064    3.9133   -3.1255 H   0  0  0  0  0  0  0  0  0  0  0  0
    0.0774    2.8845   -3.9722 H   0  0  0  0  0  0  0  0  0  0  0  0
   -1.2085    2.1347   -3.0056 H   0  0  0  0  0  0  0  0  0  0  0  0
    2.1194    6.2240    0.1053 H   0  0  0  0  0  0  0  0  0  0  0  0
    0.6950    5.9021    1.1127 H   0  0  0  0  0  0  0  0  0  0  0  0
    2.3018    5.3341    1.6358 H   0  0  0  0  0  0  0  0  0  0  0  0
  1  2  2  0  0  0  0
  1 10  1  0  0  0  0
  1 11  1  0  0  0  0
  2  3  1  0  0  0  0
  2 38  1  0  0  0  0
  3  4  2  0  0  0  0
  3 55  1  0  0  0  0
  4  5  1  0  0  0  0
  4 56  1  0  0  0  0
  5  6  1  0  0  0  0
  5 10  2  0  0  0  0
  6  7  1  0  0  0  0
  6 57  1  0  0  0  0
  6 58  1  0  0  0  0
  7  8  1  0  0  0  0
  7 59  1  0  0  0  0
  7 60  1  0  0  0  0
  8  9  1  0  0  0  0
  8 61  1  0  0  0  0
  8 62  1  0  0  0  0
  9 10  1  0  0  0  0
  9 63  1  0  0  0  0
  9 64  1  0  0  0  0
 11 12  2  0  0  0  0
 11 20  1  0  0  0  0
 12 13  1  0  0  0  0
 12 21  1  0  0  0  0
 13 14  2  0  0  0  0
 13 65  1  0  0  0  0
 14 15  1  0  0  0  0
 14 66  1  0  0  0  0
 15 16  1  0  0  0  0
 15 20  2  0  0  0  0
 16 17  1  0  0  0  0
 16 67  1  0  0  0  0
 16 68  1  0  0  0  0
 17 18  1  0  0  0  0
 17 69  1  0  0  0  0
 17 70  1  0  0  0  0
 18 19  1  0  0  0  0
 18 71  1  0  0  0  0
 18 72  1  0  0  0  0
 19 20  1  0  0  0  0
 19 73  1  0  0  0  0
 19 74  1  0  0  0  0
 21 22  1  0  0  0  0
 21 30  1  0  0  0  0
 22 23  2  0  0  0  0
 22 27  1  0  0  0  0
 23 24  1  0  0  0  0
 23 75  1  0  0  0  0
 24 25  2  0  0  0  0
 24 29  1  0  0  0  0
 25 26  1  0  0  0  0
 25 76  1  0  0  0  0
 26 27  2  0  0  0  0
 26 28  1  0  0  0  0
 27 77  1  0  0  0  0
 28 78  1  0  0  0  0
 28 79  1  0  0  0  0
 28 80  1  0  0  0  0
 29 81  1  0  0  0  0
 29 82  1  0  0  0  0
 29 83  1  0  0  0  0
 30 31  2  0  0  0  0
 30 35  1  0  0  0  0
 31 32  1  0  0  0  0
 31 84  1  0  0  0  0
 32 33  2  0  0  0  0
 32 37  1  0  0  0  0
 33 34  1  0  0  0  0
 33 85  1  0  0  0  0
 34 35  2  0  0  0  0
 34 36  1  0  0  0  0
 35 86  1  0  0  0  0
 36 87  1  0  0  0  0
 36 88  1  0  0  0  0
 36 89  1  0  0  0  0
 37 90  1  0  0  0  0
 37 91  1  0  0  0  0
 37 92  1  0  0  0  0
 38 39  1  0  0  0  0
 38 47  1  0  0  0  0
 39 40  2  0  0  0  0
 39 44  1  0  0  0  0
 40 41  1  0  0  0  0
 40 93  1  0  0  0  0
 41 42  2  0  0  0  0
 41 46  1  0  0  0  0
 42 43  1  0  0  0  0
 42 94  1  0  0  0  0
 43 44  2  0  0  0  0
 43 45  1  0  0  0  0
 44 95  1  0  0  0  0
 45 96  1  0  0  0  0
 45 97  1  0  0  0  0
 45 98  1  0  0  0  0
 46 99  1  0  0  0  0
 46100  1  0  0  0  0
 46101  1  0  0  0  0
 47 48  2  0  0  0  0
 47 52  1  0  0  0  0
 48 49  1  0  0  0  0
 48102  1  0  0  0  0
 49 50  2  0  0  0  0
 49 54  1  0  0  0  0
 50 51  1  0  0  0  0
 50103  1  0  0  0  0
 51 52  2  0  0  0  0
 51 53  1  0  0  0  0
 52104  1  0  0  0  0
 53105  1  0  0  0  0
 53106  1  0  0  0  0
 53107  1  0  0  0  0
 54108  1  0  0  0  0
 54109  1  0  0  0  0
 54110  1  0  0  0  0
M  END
$$$$
