Title Card Required
 OpenBabel03192317543D

 71 76  0  0  1  0  0  0  0  0999 V2000
   -1.0546    2.5186    0.7514 C   0  0  0  0  0  0  0  0  0  0  0  0
   -0.7017    3.7777    0.2677 C   0  0  0  0  0  0  0  0  0  0  0  0
   -0.7939    4.0514   -1.0969 C   0  0  0  0  0  0  0  0  0  0  0  0
   -1.2419    3.0619   -1.9722 C   0  0  0  0  0  0  0  0  0  0  0  0
   -1.5946    1.8020   -1.4878 C   0  0  0  0  0  0  0  0  0  0  0  0
   -1.5040    1.5178   -0.1199 C   0  0  0  0  0  0  0  0  0  0  0  0
   -4.4988    1.1603    0.5086 C   0  0  0  0  0  0  0  0  0  0  0  0
   -5.8573    1.2275    0.8222 C   0  0  0  0  0  0  0  0  0  0  0  0
   -6.4580    0.2150    1.5683 C   0  0  0  0  0  0  0  0  0  0  0  0
   -5.6933   -0.8641    2.0125 C   0  0  0  0  0  0  0  0  0  0  0  0
   -4.3349   -0.9244    1.7115 C   0  0  0  0  0  0  0  0  0  0  0  0
   -3.7246    0.0783    0.9440 C   0  0  0  0  0  0  0  0  0  0  0  0
   -1.9188   -0.1220    0.6178 P   0  0  0  0  0  0  0  0  0  0  0  0
   -0.8435   -2.6739   -2.4983 C   0  0  0  0  0  0  0  0  0  0  0  0
   -2.0543   -2.9438   -3.1237 C   0  0  0  0  0  0  0  0  0  0  0  0
   -3.2174   -2.3462   -2.6445 C   0  0  0  0  0  0  0  0  0  0  0  0
   -3.1621   -1.4920   -1.5450 C   0  0  0  0  0  0  0  0  0  0  0  0
   -1.9511   -1.1990   -0.9009 C   0  0  0  0  0  0  0  0  0  0  0  0
   -0.7775   -1.8062   -1.4006 C   0  0  0  0  0  0  0  0  0  0  0  0
    1.4830   -2.9742    1.8738 C   0  0  0  0  0  0  0  0  0  0  0  0
    3.4384   -4.0914    0.7623 C   0  0  0  0  0  0  0  0  0  0  0  0
    2.8025   -2.7526    1.1342 C   0  0  0  0  0  0  0  0  0  0  0  0
    1.5111    0.5132    2.3339 C   0  0  0  0  0  0  0  0  0  0  0  0
    1.8187    1.0742    3.5748 C   0  0  0  0  0  0  0  0  0  0  0  0
    3.1415    1.3297    3.9257 C   0  0  0  0  0  0  0  0  0  0  0  0
    4.1622    1.0244    3.0241 C   0  0  0  0  0  0  0  0  0  0  0  0
    3.8565    0.4748    1.7828 C   0  0  0  0  0  0  0  0  0  0  0  0
    2.5288    0.2071    1.4284 C   0  0  0  0  0  0  0  0  0  0  0  0
    4.0337    0.3546   -1.6183 C   0  0  0  0  0  0  0  0  0  0  0  0
    4.5064    1.2636   -2.5669 C   0  0  0  0  0  0  0  0  0  0  0  0
    3.7330    2.3609   -2.9341 C   0  0  0  0  0  0  0  0  0  0  0  0
    2.4857    2.5504   -2.3378 C   0  0  0  0  0  0  0  0  0  0  0  0
    2.0168    1.6475   -1.3885 C   0  0  0  0  0  0  0  0  0  0  0  0
    2.7814    0.5317   -1.0253 C   0  0  0  0  0  0  0  0  0  0  0  0
    2.2286   -0.3949    0.0662 C   0  0  0  0  0  0  0  0  0  0  0  0
    2.6353   -1.8945   -0.1374 C   0  0  2  0  0  0  0  0  0  0  0  0
    1.5406   -2.4223   -0.9459 N   0  0  0  0  0  0  0  0  0  0  0  0
    0.5741   -1.6100   -0.8248 C   0  0  0  0  0  0  0  0  0  0  0  0
    0.8012   -0.4710   -0.1232 O   0  0  0  0  0  0  0  0  0  0  0  0
   -0.9678    2.3080    1.8204 H   0  0  0  0  0  0  0  0  0  0  0  0
   -0.3437    4.5428    0.9581 H   0  0  0  0  0  0  0  0  0  0  0  0
   -0.5110    5.0343   -1.4777 H   0  0  0  0  0  0  0  0  0  0  0  0
   -1.3120    3.2677   -3.0418 H   0  0  0  0  0  0  0  0  0  0  0  0
   -1.9362    1.0326   -2.1833 H   0  0  0  0  0  0  0  0  0  0  0  0
   -4.0409    1.9565   -0.0817 H   0  0  0  0  0  0  0  0  0  0  0  0
   -6.4496    2.0775    0.4792 H   0  0  0  0  0  0  0  0  0  0  0  0
   -7.5209    0.2692    1.8093 H   0  0  0  0  0  0  0  0  0  0  0  0
   -6.1552   -1.6568    2.6035 H   0  0  0  0  0  0  0  0  0  0  0  0
   -3.7348   -1.7640    2.0730 H   0  0  0  0  0  0  0  0  0  0  0  0
    0.0855   -3.1286   -2.8433 H   0  0  0  0  0  0  0  0  0  0  0  0
   -2.0885   -3.6165   -3.9816 H   0  0  0  0  0  0  0  0  0  0  0  0
   -4.1775   -2.5429   -3.1245 H   0  0  0  0  0  0  0  0  0  0  0  0
   -4.0872   -1.0444   -1.1799 H   0  0  0  0  0  0  0  0  0  0  0  0
    0.8190   -3.6185    1.2790 H   0  0  0  0  0  0  0  0  0  0  0  0
    1.6661   -3.4686    2.8385 H   0  0  0  0  0  0  0  0  0  0  0  0
    0.9512   -2.0333    2.0717 H   0  0  0  0  0  0  0  0  0  0  0  0
    4.4392   -3.9564    0.3252 H   0  0  0  0  0  0  0  0  0  0  0  0
    3.5374   -4.7359    1.6476 H   0  0  0  0  0  0  0  0  0  0  0  0
    2.8112   -4.6112    0.0233 H   0  0  0  0  0  0  0  0  0  0  0  0
    3.4926   -2.2061    1.7973 H   0  0  0  0  0  0  0  0  0  0  0  0
    0.4748    0.3015    2.0651 H   0  0  0  0  0  0  0  0  0  0  0  0
    1.0122    1.3081    4.2721 H   0  0  0  0  0  0  0  0  0  0  0  0
    3.3787    1.7674    4.8965 H   0  0  0  0  0  0  0  0  0  0  0  0
    5.2027    1.2235    3.2853 H   0  0  0  0  0  0  0  0  0  0  0  0
    4.6606    0.2602    1.0754 H   0  0  0  0  0  0  0  0  0  0  0  0
    4.6659   -0.4927   -1.3496 H   0  0  0  0  0  0  0  0  0  0  0  0
    5.4854    1.1058   -3.0224 H   0  0  0  0  0  0  0  0  0  0  0  0
    4.1019    3.0679   -3.6789 H   0  0  0  0  0  0  0  0  0  0  0  0
    1.8684    3.4094   -2.6082 H   0  0  0  0  0  0  0  0  0  0  0  0
    1.0451    1.8050   -0.9187 H   0  0  0  0  0  0  0  0  0  0  0  0
    3.5714   -1.9612   -0.7064 H   0  0  0  0  0  0  0  0  0  0  0  0
  1  2  2  0  0  0  0
  1  6  1  0  0  0  0
  1 40  1  0  0  0  0
  2  3  1  0  0  0  0
  2 41  1  0  0  0  0
  3  4  2  0  0  0  0
  3 42  1  0  0  0  0
  4  5  1  0  0  0  0
  4 43  1  0  0  0  0
  5  6  2  0  0  0  0
  5 44  1  0  0  0  0
  6 13  1  0  0  0  0
  7  8  2  0  0  0  0
  7 12  1  0  0  0  0
  7 45  1  0  0  0  0
  8  9  1  0  0  0  0
  8 46  1  0  0  0  0
  9 10  2  0  0  0  0
  9 47  1  0  0  0  0
 10 11  1  0  0  0  0
 10 48  1  0  0  0  0
 11 12  2  0  0  0  0
 11 49  1  0  0  0  0
 12 13  1  0  0  0  0
 13 18  1  0  0  0  0
 14 15  2  0  0  0  0
 14 19  1  0  0  0  0
 14 50  1  0  0  0  0
 15 16  1  0  0  0  0
 15 51  1  0  0  0  0
 16 17  2  0  0  0  0
 16 52  1  0  0  0  0
 17 18  1  0  0  0  0
 17 53  1  0  0  0  0
 18 19  2  0  0  0  0
 19 38  1  0  0  0  0
 20 22  1  0  0  0  0
 20 54  1  0  0  0  0
 20 55  1  0  0  0  0
 20 56  1  0  0  0  0
 21 22  1  0  0  0  0
 21 57  1  0  0  0  0
 21 58  1  0  0  0  0
 21 59  1  0  0  0  0
 22 36  1  0  0  0  0
 22 60  1  0  0  0  0
 23 24  2  0  0  0  0
 23 28  1  0  0  0  0
 23 61  1  0  0  0  0
 24 25  1  0  0  0  0
 24 62  1  0  0  0  0
 25 26  2  0  0  0  0
 25 63  1  0  0  0  0
 26 27  1  0  0  0  0
 26 64  1  0  0  0  0
 27 28  2  0  0  0  0
 27 65  1  0  0  0  0
 28 35  1  0  0  0  0
 29 30  2  0  0  0  0
 29 34  1  0  0  0  0
 29 66  1  0  0  0  0
 30 31  1  0  0  0  0
 30 67  1  0  0  0  0
 31 32  2  0  0  0  0
 31 68  1  0  0  0  0
 32 33  1  0  0  0  0
 32 69  1  0  0  0  0
 33 34  2  0  0  0  0
 33 70  1  0  0  0  0
 34 35  1  0  0  0  0
 35 36  1  0  0  0  0
 35 39  1  0  0  0  0
 36 37  1  0  0  0  0
 36 71  1  6  0  0  0
 37 38  2  0  0  0  0
 38 39  1  0  0  0  0
M  END
$$$$
