Title Card Required
 OpenBabel03192317573D

 86 89  0  0  1  0  0  0  0  0999 V2000
    6.3996   -1.7980    0.3386 C   0  0  0  0  0  0  0  0  0  0  0  0
    5.0458   -1.9363    1.0393 C   0  0  0  0  0  0  0  0  0  0  0  0
    4.0697   -0.8626    0.5958 C   0  0  0  0  0  0  0  0  0  0  0  0
    3.7238   -0.7135   -0.7500 C   0  0  0  0  0  0  0  0  0  0  0  0
    2.8412    0.2789   -1.1808 C   0  0  0  0  0  0  0  0  0  0  0  0
    2.2978    1.1827   -0.2379 C   0  0  0  0  0  0  0  0  0  0  0  0
    1.5669    2.4219   -0.7253 C   0  0  0  0  0  0  0  0  0  0  0  0
    0.0335    2.4106   -0.8891 C   0  0  2  0  0  0  0  0  0  0  0  0
   -0.5790    3.0569    0.2336 O   0  0  0  0  0  0  0  0  0  0  0  0
   -1.3638    2.2454    0.9773 C   0  0  0  0  0  0  0  0  0  0  0  0
   -1.5997    0.9551    0.4939 C   0  0  0  0  0  0  0  0  0  0  0  0
   -0.7825    0.7135   -1.1283 P   0  0  1  0  0  0  0  0  0  0  0  0
   -2.3851    0.0654    1.2412 C   0  0  0  0  0  0  0  0  0  0  0  0
   -2.6204   -1.3237    0.7599 C   0  0  0  0  0  0  0  0  0  0  0  0
   -3.9130   -1.7855    0.4637 C   0  0  0  0  0  0  0  0  0  0  0  0
   -4.9151   -0.8971    0.6598 O   0  0  0  0  0  0  0  0  0  0  0  0
   -6.2244   -1.2729    0.3241 C   0  0  0  0  0  0  0  0  0  0  0  0
   -4.1155   -3.0713   -0.0528 C   0  0  0  0  0  0  0  0  0  0  0  0
   -3.0124   -3.8926   -0.2696 C   0  0  0  0  0  0  0  0  0  0  0  0
   -1.7208   -3.4700    0.0252 C   0  0  0  0  0  0  0  0  0  0  0  0
   -1.5308   -2.1865    0.5556 C   0  0  0  0  0  0  0  0  0  0  0  0
   -0.3271   -1.6984    0.9050 O   0  0  0  0  0  0  0  0  0  0  0  0
    0.8306   -2.3681    0.4765 C   0  0  0  0  0  0  0  0  0  0  0  0
   -2.9402    0.5090    2.4476 C   0  0  0  0  0  0  0  0  0  0  0  0
   -2.7043    1.8057    2.9045 C   0  0  0  0  0  0  0  0  0  0  0  0
   -1.9115    2.6917    2.1784 C   0  0  0  0  0  0  0  0  0  0  0  0
    2.5491    0.9758    1.1322 C   0  0  0  0  0  0  0  0  0  0  0  0
    1.8699    1.7957    2.2184 C   0  0  0  0  0  0  0  0  0  0  0  0
    1.0404    0.8868    3.1349 C   0  0  0  0  0  0  0  0  0  0  0  0
    2.8756    2.6286    3.0175 C   0  0  0  0  0  0  0  0  0  0  0  0
    3.4454   -0.0285    1.5203 C   0  0  0  0  0  0  0  0  0  0  0  0
    2.5321    0.3822   -2.6697 C   0  0  0  0  0  0  0  0  0  0  0  0
    4.4607   -3.3367    0.8312 C   0  0  0  0  0  0  0  0  0  0  0  0
    3.7242    0.9694   -3.4322 C   0  0  0  0  0  0  0  0  0  0  0  0
    2.0913   -0.9566   -3.2653 C   0  0  0  0  0  0  0  0  0  0  0  0
   -2.1781    1.1985   -2.3276 C   0  0  0  0  0  0  0  0  0  0  0  0
   -1.5172    1.3305   -3.7042 C   0  0  0  0  0  0  0  0  0  0  0  0
   -3.1761    0.0356   -2.3418 C   0  0  0  0  0  0  0  0  0  0  0  0
   -2.9200    2.4840   -1.9601 C   0  0  0  0  0  0  0  0  0  0  0  0
    6.2998   -1.9585   -0.7459 H   0  0  0  0  0  0  0  0  0  0  0  0
    7.1132   -2.5427    0.7215 H   0  0  0  0  0  0  0  0  0  0  0  0
    6.8262   -0.7970    0.4931 H   0  0  0  0  0  0  0  0  0  0  0  0
    5.2085   -1.7961    2.1203 H   0  0  0  0  0  0  0  0  0  0  0  0
    4.1631   -1.3889   -1.4897 H   0  0  0  0  0  0  0  0  0  0  0  0
    1.7911    3.2664   -0.0580 H   0  0  0  0  0  0  0  0  0  0  0  0
    1.9990    2.7038   -1.6943 H   0  0  0  0  0  0  0  0  0  0  0  0
   -0.2096    3.0309   -1.7642 H   0  0  0  0  0  0  0  0  0  0  0  0
   -6.3122   -1.5085   -0.7497 H   0  0  0  0  0  0  0  0  0  0  0  0
   -6.5579   -2.1438    0.9119 H   0  0  0  0  0  0  0  0  0  0  0  0
   -6.8644   -0.4152    0.5585 H   0  0  0  0  0  0  0  0  0  0  0  0
   -5.1136   -3.4284   -0.2968 H   0  0  0  0  0  0  0  0  0  0  0  0
   -3.1656   -4.8927   -0.6787 H   0  0  0  0  0  0  0  0  0  0  0  0
   -0.8761   -4.1342   -0.1446 H   0  0  0  0  0  0  0  0  0  0  0  0
    0.9318   -3.3516    0.9662 H   0  0  0  0  0  0  0  0  0  0  0  0
    0.8282   -2.5022   -0.6181 H   0  0  0  0  0  0  0  0  0  0  0  0
    1.6749   -1.7303    0.7566 H   0  0  0  0  0  0  0  0  0  0  0  0
   -3.5612   -0.1745    3.0269 H   0  0  0  0  0  0  0  0  0  0  0  0
   -3.1414    2.1312    3.8501 H   0  0  0  0  0  0  0  0  0  0  0  0
   -1.7091    3.7063    2.5215 H   0  0  0  0  0  0  0  0  0  0  0  0
    1.1672    2.4894    1.7389 H   0  0  0  0  0  0  0  0  0  0  0  0
    1.6901    0.2166    3.7201 H   0  0  0  0  0  0  0  0  0  0  0  0
    0.4521    1.4896    3.8431 H   0  0  0  0  0  0  0  0  0  0  0  0
    0.3447    0.2638    2.5512 H   0  0  0  0  0  0  0  0  0  0  0  0
    3.4458    3.3041    2.3628 H   0  0  0  0  0  0  0  0  0  0  0  0
    2.3583    3.2356    3.7753 H   0  0  0  0  0  0  0  0  0  0  0  0
    3.5961    1.9813    3.5406 H   0  0  0  0  0  0  0  0  0  0  0  0
    3.6614   -0.1658    2.5839 H   0  0  0  0  0  0  0  0  0  0  0  0
    1.6782    1.0629   -2.7995 H   0  0  0  0  0  0  0  0  0  0  0  0
    5.1601   -4.1106    1.1815 H   0  0  0  0  0  0  0  0  0  0  0  0
    3.5143   -3.4557    1.3777 H   0  0  0  0  0  0  0  0  0  0  0  0
    4.2613   -3.5199   -0.2366 H   0  0  0  0  0  0  0  0  0  0  0  0
    4.5981    0.3053   -3.3466 H   0  0  0  0  0  0  0  0  0  0  0  0
    3.4896    1.0888   -4.5006 H   0  0  0  0  0  0  0  0  0  0  0  0
    4.0143    1.9507   -3.0280 H   0  0  0  0  0  0  0  0  0  0  0  0
    1.2036   -1.3358   -2.7380 H   0  0  0  0  0  0  0  0  0  0  0  0
    1.8337   -0.8316   -4.3280 H   0  0  0  0  0  0  0  0  0  0  0  0
    2.8863   -1.7151   -3.2059 H   0  0  0  0  0  0  0  0  0  0  0  0
   -1.0008    0.4008   -3.9905 H   0  0  0  0  0  0  0  0  0  0  0  0
   -2.2807    1.5477   -4.4689 H   0  0  0  0  0  0  0  0  0  0  0  0
   -0.7823    2.1514   -3.7326 H   0  0  0  0  0  0  0  0  0  0  0  0
   -3.7475    0.0026   -1.4024 H   0  0  0  0  0  0  0  0  0  0  0  0
   -3.8937    0.1741   -3.1679 H   0  0  0  0  0  0  0  0  0  0  0  0
   -2.6783   -0.9383   -2.4772 H   0  0  0  0  0  0  0  0  0  0  0  0
   -3.3983    2.3964   -0.9730 H   0  0  0  0  0  0  0  0  0  0  0  0
   -2.2623    3.3655   -1.9443 H   0  0  0  0  0  0  0  0  0  0  0  0
   -3.7125    2.6749   -2.7031 H   0  0  0  0  0  0  0  0  0  0  0  0
  1  2  1  0  0  0  0
  1 40  1  0  0  0  0
  1 41  1  0  0  0  0
  1 42  1  0  0  0  0
  2  3  1  0  0  0  0
  2 33  1  0  0  0  0
  2 43  1  0  0  0  0
  3  4  2  0  0  0  0
  3 31  1  0  0  0  0
  4  5  1  0  0  0  0
  4 44  1  0  0  0  0
  5  6  2  0  0  0  0
  5 32  1  0  0  0  0
  6  7  1  0  0  0  0
  6 27  1  0  0  0  0
  7  8  1  0  0  0  0
  7 45  1  0  0  0  0
  7 46  1  0  0  0  0
  8  9  1  0  0  0  0
  8 12  1  0  0  0  0
  8 47  1  6  0  0  0
  9 10  1  0  0  0  0
 10 11  2  0  0  0  0
 10 26  1  0  0  0  0
 11 12  1  0  0  0  0
 11 13  1  0  0  0  0
 12 36  1  6  0  0  0
 13 14  1  0  0  0  0
 13 24  2  0  0  0  0
 14 15  2  0  0  0  0
 14 21  1  0  0  0  0
 15 16  1  0  0  0  0
 15 18  1  0  0  0  0
 16 17  1  0  0  0  0
 17 48  1  0  0  0  0
 17 49  1  0  0  0  0
 17 50  1  0  0  0  0
 18 19  2  0  0  0  0
 18 51  1  0  0  0  0
 19 20  1  0  0  0  0
 19 52  1  0  0  0  0
 20 21  2  0  0  0  0
 20 53  1  0  0  0  0
 21 22  1  0  0  0  0
 22 23  1  0  0  0  0
 23 54  1  0  0  0  0
 23 55  1  0  0  0  0
 23 56  1  0  0  0  0
 24 25  1  0  0  0  0
 24 57  1  0  0  0  0
 25 26  2  0  0  0  0
 25 58  1  0  0  0  0
 26 59  1  0  0  0  0
 27 28  1  0  0  0  0
 27 31  2  0  0  0  0
 28 29  1  0  0  0  0
 28 30  1  0  0  0  0
 28 60  1  0  0  0  0
 29 61  1  0  0  0  0
 29 62  1  0  0  0  0
 29 63  1  0  0  0  0
 30 64  1  0  0  0  0
 30 65  1  0  0  0  0
 30 66  1  0  0  0  0
 31 67  1  0  0  0  0
 32 34  1  0  0  0  0
 32 35  1  0  0  0  0
 32 68  1  0  0  0  0
 33 69  1  0  0  0  0
 33 70  1  0  0  0  0
 33 71  1  0  0  0  0
 34 72  1  0  0  0  0
 34 73  1  0  0  0  0
 34 74  1  0  0  0  0
 35 75  1  0  0  0  0
 35 76  1  0  0  0  0
 35 77  1  0  0  0  0
 36 37  1  0  0  0  0
 36 38  1  0  0  0  0
 36 39  1  0  0  0  0
 37 78  1  0  0  0  0
 37 79  1  0  0  0  0
 37 80  1  0  0  0  0
 38 81  1  0  0  0  0
 38 82  1  0  0  0  0
 38 83  1  0  0  0  0
 39 84  1  0  0  0  0
 39 85  1  0  0  0  0
 39 86  1  0  0  0  0
M  END
$$$$
