Title Card Required
 OpenBabel03192317553D

 16 15  0  0  1  0  0  0  0  0999 V2000
   -1.5164    1.2081    0.0632 C   0  0  0  0  0  0  0  0  0  0  0  0
   -0.6788    0.0051   -0.3311 C   0  0  1  0  0  0  0  0  0  0  0  0
    0.7056   -0.0368    0.3205 C   0  0  2  0  0  0  0  0  0  0  0  0
    1.5975    1.1275   -0.0646 C   0  0  0  0  0  0  0  0  0  0  0  0
   -1.3487   -1.2115   -0.0356 O   0  0  0  0  0  0  0  0  0  0  0  0
    1.3504   -1.2240   -0.0593 O   0  0  0  0  0  0  0  0  0  0  0  0
   -2.5244    1.1140   -0.3624 H   0  0  0  0  0  0  0  0  0  0  0  0
   -1.0742    2.1457   -0.2988 H   0  0  0  0  0  0  0  0  0  0  0  0
   -1.6064    1.2760    1.1604 H   0  0  0  0  0  0  0  0  0  0  0  0
   -0.5278   -0.0102   -1.4229 H   0  0  0  0  0  0  0  0  0  0  0  0
    0.5444   -0.0184    1.4228 H   0  0  0  0  0  0  0  0  0  0  0  0
    1.2189    2.0803    0.3293 H   0  0  0  0  0  0  0  0  0  0  0  0
    2.6043    0.9593    0.3400 H   0  0  0  0  0  0  0  0  0  0  0  0
    1.6781    1.1936   -1.1598 H   0  0  0  0  0  0  0  0  0  0  0  0
   -1.6417   -1.1710    0.8835 H   0  0  0  0  0  0  0  0  0  0  0  0
    0.6677   -1.9089   -0.0613 H   0  0  0  0  0  0  0  0  0  0  0  0
  1  2  1  0  0  0  0
  1  7  1  0  0  0  0
  1  8  1  0  0  0  0
  1  9  1  0  0  0  0
  2  3  1  0  0  0  0
  2  5  1  0  0  0  0
  2 10  1  6  0  0  0
  3  4  1  0  0  0  0
  3  6  1  0  0  0  0
  3 11  1  1  0  0  0
  4 12  1  0  0  0  0
  4 13  1  0  0  0  0
  4 14  1  0  0  0  0
  5 15  1  0  0  0  0
  6 16  1  0  0  0  0
M  END
$$$$
