Title Card Required
 OpenBabel03192317523D

 48 50  0  0  1  0  0  0  0  0999 V2000
    0.5008    0.2946    0.5833 C   0  0  2  0  0  0  0  0  0  0  0  0
   -0.5009    0.2947   -0.5833 C   0  0  2  0  0  0  0  0  0  0  0  0
   -0.3319    1.5660   -1.4372 C   0  0  0  0  0  0  0  0  0  0  0  0
   -0.4860    2.8311   -0.5907 C   0  0  0  0  0  0  0  0  0  0  0  0
    0.4860    2.8311    0.5911 C   0  0  0  0  0  0  0  0  0  0  0  0
    0.3319    1.5658    1.4374 C   0  0  0  0  0  0  0  0  0  0  0  0
    1.8476    0.0984    0.0641 N   0  0  0  0  0  0  0  0  0  0  0  0
   -1.8476    0.0985   -0.0640 N   0  0  0  0  0  0  0  0  0  0  0  0
   -2.8704   -0.1625   -1.0549 C   0  0  0  0  0  0  0  0  0  0  0  0
   -4.1944   -0.5307   -0.4204 C   0  0  0  0  0  0  0  0  0  0  0  0
   -5.3980   -0.2119   -1.0566 C   0  0  0  0  0  0  0  0  0  0  0  0
   -6.6202   -0.5825   -0.4983 C   0  0  0  0  0  0  0  0  0  0  0  0
   -6.6538   -1.2716    0.7133 C   0  0  0  0  0  0  0  0  0  0  0  0
   -5.4585   -1.5868    1.3587 C   0  0  0  0  0  0  0  0  0  0  0  0
   -4.2372   -1.2204    0.7958 C   0  0  0  0  0  0  0  0  0  0  0  0
    2.8703   -0.1630    1.0549 C   0  0  0  0  0  0  0  0  0  0  0  0
    4.1944   -0.5309    0.4203 C   0  0  0  0  0  0  0  0  0  0  0  0
    5.3979   -0.2122    1.0567 C   0  0  0  0  0  0  0  0  0  0  0  0
    6.6202   -0.5826    0.4983 C   0  0  0  0  0  0  0  0  0  0  0  0
    6.6539   -1.2713   -0.7135 C   0  0  0  0  0  0  0  0  0  0  0  0
    5.4586   -1.5864   -1.3590 C   0  0  0  0  0  0  0  0  0  0  0  0
    4.2373   -1.2202   -0.7961 C   0  0  0  0  0  0  0  0  0  0  0  0
    0.2638   -0.5864    1.2009 H   0  0  0  0  0  0  0  0  0  0  0  0
   -0.2639   -0.5862   -1.2010 H   0  0  0  0  0  0  0  0  0  0  0  0
    0.6647    1.5540   -1.9104 H   0  0  0  0  0  0  0  0  0  0  0  0
   -1.0542    1.5618   -2.2679 H   0  0  0  0  0  0  0  0  0  0  0  0
   -0.3390    3.7273   -1.2117 H   0  0  0  0  0  0  0  0  0  0  0  0
   -1.5203    2.8912   -0.2081 H   0  0  0  0  0  0  0  0  0  0  0  0
    1.5204    2.8911    0.2085 H   0  0  0  0  0  0  0  0  0  0  0  0
    0.3391    3.7272    1.2121 H   0  0  0  0  0  0  0  0  0  0  0  0
   -0.6647    1.5537    1.9107 H   0  0  0  0  0  0  0  0  0  0  0  0
    1.0543    1.5614    2.2681 H   0  0  0  0  0  0  0  0  0  0  0  0
    2.1356    0.8751   -0.5278 H   0  0  0  0  0  0  0  0  0  0  0  0
   -2.1356    0.8753    0.5279 H   0  0  0  0  0  0  0  0  0  0  0  0
   -3.0447    0.6765   -1.7594 H   0  0  0  0  0  0  0  0  0  0  0  0
   -2.5227   -1.0087   -1.6744 H   0  0  0  0  0  0  0  0  0  0  0  0
   -5.3769    0.3382   -2.0008 H   0  0  0  0  0  0  0  0  0  0  0  0
   -7.5500   -0.3256   -1.0085 H   0  0  0  0  0  0  0  0  0  0  0  0
   -7.6093   -1.5590    1.1551 H   0  0  0  0  0  0  0  0  0  0  0  0
   -5.4771   -2.1253    2.3080 H   0  0  0  0  0  0  0  0  0  0  0  0
   -3.2963   -1.4577    1.2939 H   0  0  0  0  0  0  0  0  0  0  0  0
    3.0445    0.6759    1.7596 H   0  0  0  0  0  0  0  0  0  0  0  0
    2.5227   -1.0094    1.6741 H   0  0  0  0  0  0  0  0  0  0  0  0
    5.3767    0.3376    2.0010 H   0  0  0  0  0  0  0  0  0  0  0  0
    7.5499   -0.3258    1.0087 H   0  0  0  0  0  0  0  0  0  0  0  0
    7.6094   -1.5586   -1.1553 H   0  0  0  0  0  0  0  0  0  0  0  0
    5.4773   -2.1245   -2.3085 H   0  0  0  0  0  0  0  0  0  0  0  0
    3.2964   -1.4575   -1.2943 H   0  0  0  0  0  0  0  0  0  0  0  0
  1  2  1  0  0  0  0
  1  6  1  0  0  0  0
  1  7  1  0  0  0  0
  1 23  1  1  0  0  0
  2  3  1  0  0  0  0
  2  8  1  0  0  0  0
  2 24  1  6  0  0  0
  3  4  1  0  0  0  0
  3 25  1  0  0  0  0
  3 26  1  0  0  0  0
  4  5  1  0  0  0  0
  4 27  1  0  0  0  0
  4 28  1  0  0  0  0
  5  6  1  0  0  0  0
  5 29  1  0  0  0  0
  5 30  1  0  0  0  0
  6 31  1  0  0  0  0
  6 32  1  0  0  0  0
  7 16  1  0  0  0  0
  7 33  1  0  0  0  0
  8  9  1  0  0  0  0
  8 34  1  0  0  0  0
  9 10  1  0  0  0  0
  9 35  1  0  0  0  0
  9 36  1  0  0  0  0
 10 11  2  0  0  0  0
 10 15  1  0  0  0  0
 11 12  1  0  0  0  0
 11 37  1  0  0  0  0
 12 13  2  0  0  0  0
 12 38  1  0  0  0  0
 13 14  1  0  0  0  0
 13 39  1  0  0  0  0
 14 15  2  0  0  0  0
 14 40  1  0  0  0  0
 15 41  1  0  0  0  0
 16 17  1  0  0  0  0
 16 42  1  0  0  0  0
 16 43  1  0  0  0  0
 17 18  2  0  0  0  0
 17 22  1  0  0  0  0
 18 19  1  0  0  0  0
 18 44  1  0  0  0  0
 19 20  2  0  0  0  0
 19 45  1  0  0  0  0
 20 21  1  0  0  0  0
 20 46  1  0  0  0  0
 21 22  2  0  0  0  0
 21 47  1  0  0  0  0
 22 48  1  0  0  0  0
M  END
$$$$
