Title Card Required
 OpenBabel03192317503D

 62 67  0  0  1  0  0  0  0  0999 V2000
    1.8906   -1.6412    0.9266 O   0  0  0  0  0  0  0  0  0  0  0  0
    0.6992   -1.1096    0.5479 C   0  0  0  0  0  0  0  0  0  0  0  0
    0.7127    0.0589    0.0553 N   0  0  0  0  0  0  0  0  0  0  0  0
    2.0942    0.5070    0.0163 C   0  0  2  0  0  0  0  0  0  0  0  0
    2.8516   -0.5834    0.8464 C   0  0  2  0  0  0  0  0  0  0  0  0
    4.1422   -1.0538    0.2374 C   0  0  0  0  0  0  0  0  0  0  0  0
    5.3548   -0.5083    0.6659 C   0  0  0  0  0  0  0  0  0  0  0  0
    6.5511   -0.8834    0.0551 C   0  0  0  0  0  0  0  0  0  0  0  0
    6.5431   -1.8154   -0.9811 C   0  0  0  0  0  0  0  0  0  0  0  0
    5.3348   -2.3703   -1.4049 C   0  0  0  0  0  0  0  0  0  0  0  0
    4.1389   -1.9899   -0.8009 C   0  0  0  0  0  0  0  0  0  0  0  0
    2.2946    1.9080    0.5434 C   0  0  0  0  0  0  0  0  0  0  0  0
    1.3017    2.5435    1.2933 C   0  0  0  0  0  0  0  0  0  0  0  0
    1.5254    3.8204    1.8087 C   0  0  0  0  0  0  0  0  0  0  0  0
    2.7379    4.4700    1.5826 C   0  0  0  0  0  0  0  0  0  0  0  0
    3.7287    3.8412    0.8280 C   0  0  0  0  0  0  0  0  0  0  0  0
    3.5056    2.5685    0.3064 C   0  0  0  0  0  0  0  0  0  0  0  0
   -0.4916   -1.9589    0.7295 C   0  0  0  0  0  0  0  0  0  0  0  0
   -1.8011   -1.4301    0.6254 C   0  0  0  0  0  0  0  0  0  0  0  0
   -2.8707   -2.3191    0.7953 C   0  0  0  0  0  0  0  0  0  0  0  0
   -2.6625   -3.6731    1.0576 C   0  0  0  0  0  0  0  0  0  0  0  0
   -1.3696   -4.1762    1.1699 C   0  0  0  0  0  0  0  0  0  0  0  0
   -0.2891   -3.3158    1.0088 C   0  0  0  0  0  0  0  0  0  0  0  0
   -2.0899    0.3977    0.4009 P   0  0  0  0  0  0  0  0  0  0  0  0
   -1.8399    0.5924   -1.4150 C   0  0  0  0  0  0  0  0  0  0  0  0
   -1.9524   -0.4602   -2.3293 C   0  0  0  0  0  0  0  0  0  0  0  0
   -1.7578   -0.2342   -3.6920 C   0  0  0  0  0  0  0  0  0  0  0  0
   -1.4494    1.0451   -4.1534 C   0  0  0  0  0  0  0  0  0  0  0  0
   -1.3312    2.0982   -3.2468 C   0  0  0  0  0  0  0  0  0  0  0  0
   -1.5202    1.8708   -1.8846 C   0  0  0  0  0  0  0  0  0  0  0  0
   -3.9376    0.4595    0.5087 C   0  0  0  0  0  0  0  0  0  0  0  0
   -4.4871    0.5577    1.7960 C   0  0  0  0  0  0  0  0  0  0  0  0
   -5.8656    0.6251    1.9829 C   0  0  0  0  0  0  0  0  0  0  0  0
   -6.7195    0.6206    0.8791 C   0  0  0  0  0  0  0  0  0  0  0  0
   -6.1847    0.5457   -0.4055 C   0  0  0  0  0  0  0  0  0  0  0  0
   -4.8037    0.4634   -0.5912 C   0  0  0  0  0  0  0  0  0  0  0  0
    2.4378    0.4768   -1.0331 H   0  0  0  0  0  0  0  0  0  0  0  0
    3.0290   -0.2100    1.8687 H   0  0  0  0  0  0  0  0  0  0  0  0
    5.3597    0.2145    1.4854 H   0  0  0  0  0  0  0  0  0  0  0  0
    7.4935   -0.4528    0.3973 H   0  0  0  0  0  0  0  0  0  0  0  0
    7.4788   -2.1142   -1.4561 H   0  0  0  0  0  0  0  0  0  0  0  0
    5.3248   -3.1049   -2.2117 H   0  0  0  0  0  0  0  0  0  0  0  0
    3.1914   -2.4261   -1.1235 H   0  0  0  0  0  0  0  0  0  0  0  0
    0.3472    2.0364    1.4526 H   0  0  0  0  0  0  0  0  0  0  0  0
    0.7423    4.3126    2.3880 H   0  0  0  0  0  0  0  0  0  0  0  0
    2.9082    5.4690    1.9873 H   0  0  0  0  0  0  0  0  0  0  0  0
    4.6759    4.3483    0.6368 H   0  0  0  0  0  0  0  0  0  0  0  0
    4.2761    2.0813   -0.2973 H   0  0  0  0  0  0  0  0  0  0  0  0
   -3.8940   -1.9501    0.7216 H   0  0  0  0  0  0  0  0  0  0  0  0
   -3.5220   -4.3350    1.1768 H   0  0  0  0  0  0  0  0  0  0  0  0
   -1.2011   -5.2327    1.3819 H   0  0  0  0  0  0  0  0  0  0  0  0
    0.7336   -3.6828    1.0970 H   0  0  0  0  0  0  0  0  0  0  0  0
   -2.1959   -1.4651   -1.9756 H   0  0  0  0  0  0  0  0  0  0  0  0
   -1.8476   -1.0625   -4.3971 H   0  0  0  0  0  0  0  0  0  0  0  0
   -1.2963    1.2206   -5.2195 H   0  0  0  0  0  0  0  0  0  0  0  0
   -1.0807    3.0999   -3.6000 H   0  0  0  0  0  0  0  0  0  0  0  0
   -1.4044    2.6915   -1.1724 H   0  0  0  0  0  0  0  0  0  0  0  0
   -3.8213    0.5780    2.6634 H   0  0  0  0  0  0  0  0  0  0  0  0
   -6.2748    0.6934    2.9924 H   0  0  0  0  0  0  0  0  0  0  0  0
   -7.7996    0.6826    1.0215 H   0  0  0  0  0  0  0  0  0  0  0  0
   -6.8459    0.5496   -1.2737 H   0  0  0  0  0  0  0  0  0  0  0  0
   -4.4005    0.4016   -1.6036 H   0  0  0  0  0  0  0  0  0  0  0  0
  1  2  1  0  0  0  0
  1  5  1  0  0  0  0
  2  3  2  0  0  0  0
  2 18  1  0  0  0  0
  3  4  1  0  0  0  0
  4  5  1  0  0  0  0
  4 12  1  0  0  0  0
  4 37  1  6  0  0  0
  5  6  1  0  0  0  0
  5 38  1  1  0  0  0
  6  7  2  0  0  0  0
  6 11  1  0  0  0  0
  7  8  1  0  0  0  0
  7 39  1  0  0  0  0
  8  9  2  0  0  0  0
  8 40  1  0  0  0  0
  9 10  1  0  0  0  0
  9 41  1  0  0  0  0
 10 11  2  0  0  0  0
 10 42  1  0  0  0  0
 11 43  1  0  0  0  0
 12 13  2  0  0  0  0
 12 17  1  0  0  0  0
 13 14  1  0  0  0  0
 13 44  1  0  0  0  0
 14 15  2  0  0  0  0
 14 45  1  0  0  0  0
 15 16  1  0  0  0  0
 15 46  1  0  0  0  0
 16 17  2  0  0  0  0
 16 47  1  0  0  0  0
 17 48  1  0  0  0  0
 18 19  2  0  0  0  0
 18 23  1  0  0  0  0
 19 20  1  0  0  0  0
 19 24  1  0  0  0  0
 20 21  2  0  0  0  0
 20 49  1  0  0  0  0
 21 22  1  0  0  0  0
 21 50  1  0  0  0  0
 22 23  2  0  0  0  0
 22 51  1  0  0  0  0
 23 52  1  0  0  0  0
 24 25  1  0  0  0  0
 24 31  1  0  0  0  0
 25 26  2  0  0  0  0
 25 30  1  0  0  0  0
 26 27  1  0  0  0  0
 26 53  1  0  0  0  0
 27 28  2  0  0  0  0
 27 54  1  0  0  0  0
 28 29  1  0  0  0  0
 28 55  1  0  0  0  0
 29 30  2  0  0  0  0
 29 56  1  0  0  0  0
 30 57  1  0  0  0  0
 31 32  2  0  0  0  0
 31 36  1  0  0  0  0
 32 33  1  0  0  0  0
 32 58  1  0  0  0  0
 33 34  2  0  0  0  0
 33 59  1  0  0  0  0
 34 35  1  0  0  0  0
 34 60  1  0  0  0  0
 35 36  2  0  0  0  0
 35 61  1  0  0  0  0
 36 62  1  0  0  0  0
M  END
$$$$
