Title Card Required
 OpenBabel03192317433D

 42 44  0  0  1  0  0  0  0  0999 V2000
   -2.8490   -0.4593   -1.3699 C   0  0  2  0  0  0  0  0  0  0  0  0
   -4.2179   -1.0599   -1.6836 C   0  0  0  0  0  0  0  0  0  0  0  0
   -2.3745   -0.6928    0.0588 C   0  0  0  0  0  0  0  0  0  0  0  0
   -1.0235   -0.4781    0.3997 C   0  0  0  0  0  0  0  0  0  0  0  0
   -0.6225   -0.6058    1.7339 C   0  0  0  0  0  0  0  0  0  0  0  0
   -1.5292   -0.9614    2.7296 C   0  0  0  0  0  0  0  0  0  0  0  0
   -2.8603   -1.1912    2.3916 C   0  0  0  0  0  0  0  0  0  0  0  0
   -3.2740   -1.0535    1.0682 C   0  0  0  0  0  0  0  0  0  0  0  0
    0.1992   -0.0028   -0.9211 P   0  0  0  0  0  0  0  0  0  0  0  0
    0.7653    1.6182   -0.2277 C   0  0  0  0  0  0  0  0  0  0  0  0
    1.8236    1.7784    0.6751 C   0  0  0  0  0  0  0  0  0  0  0  0
    2.1609    3.0464    1.1489 C   0  0  0  0  0  0  0  0  0  0  0  0
    1.4433    4.1663    0.7314 C   0  0  0  0  0  0  0  0  0  0  0  0
    0.3847    4.0141   -0.1637 C   0  0  0  0  0  0  0  0  0  0  0  0
    0.0509    2.7496   -0.6451 C   0  0  0  0  0  0  0  0  0  0  0  0
    1.6256   -1.1071   -0.5351 C   0  0  0  0  0  0  0  0  0  0  0  0
    1.4856   -2.3605    0.0739 C   0  0  0  0  0  0  0  0  0  0  0  0
    2.5800   -3.2179    0.1994 C   0  0  0  0  0  0  0  0  0  0  0  0
    3.8314   -2.8391   -0.2801 C   0  0  0  0  0  0  0  0  0  0  0  0
    3.9812   -1.5976   -0.9004 C   0  0  0  0  0  0  0  0  0  0  0  0
    2.8878   -0.7472   -1.0348 C   0  0  0  0  0  0  0  0  0  0  0  0
   -2.7698    0.9781   -1.6343 N   0  0  0  0  0  0  0  0  0  0  0  0
   -2.1107   -0.9353   -2.0355 H   0  0  0  0  0  0  0  0  0  0  0  0
   -4.2554   -2.1361   -1.4604 H   0  0  0  0  0  0  0  0  0  0  0  0
   -5.0153   -0.5588   -1.1137 H   0  0  0  0  0  0  0  0  0  0  0  0
   -4.4418   -0.9264   -2.7520 H   0  0  0  0  0  0  0  0  0  0  0  0
    0.4235   -0.4275    1.9964 H   0  0  0  0  0  0  0  0  0  0  0  0
   -1.1958   -1.0559    3.7641 H   0  0  0  0  0  0  0  0  0  0  0  0
   -3.5823   -1.4741    3.1595 H   0  0  0  0  0  0  0  0  0  0  0  0
   -4.3211   -1.2330    0.8223 H   0  0  0  0  0  0  0  0  0  0  0  0
    2.3975    0.9099    1.0061 H   0  0  0  0  0  0  0  0  0  0  0  0
    2.9888    3.1579    1.8513 H   0  0  0  0  0  0  0  0  0  0  0  0
    1.7102    5.1572    1.1024 H   0  0  0  0  0  0  0  0  0  0  0  0
   -0.1816    4.8871   -0.4935 H   0  0  0  0  0  0  0  0  0  0  0  0
   -0.7845    2.6149   -1.3362 H   0  0  0  0  0  0  0  0  0  0  0  0
    0.5127   -2.6755    0.4561 H   0  0  0  0  0  0  0  0  0  0  0  0
    2.4492   -4.1900    0.6784 H   0  0  0  0  0  0  0  0  0  0  0  0
    4.6860   -3.5095   -0.1774 H   0  0  0  0  0  0  0  0  0  0  0  0
    4.9549   -1.2912   -1.2864 H   0  0  0  0  0  0  0  0  0  0  0  0
    3.0162    0.2191   -1.5304 H   0  0  0  0  0  0  0  0  0  0  0  0
   -3.0516    1.1764   -2.5936 H   0  0  0  0  0  0  0  0  0  0  0  0
   -3.4144    1.4771   -1.0209 H   0  0  0  0  0  0  0  0  0  0  0  0
  1  2  1  0  0  0  0
  1  3  1  0  0  0  0
  1 22  1  0  0  0  0
  1 23  1  6  0  0  0
  2 24  1  0  0  0  0
  2 25  1  0  0  0  0
  2 26  1  0  0  0  0
  3  4  2  0  0  0  0
  3  8  1  0  0  0  0
  4  5  1  0  0  0  0
  4  9  1  0  0  0  0
  5  6  2  0  0  0  0
  5 27  1  0  0  0  0
  6  7  1  0  0  0  0
  6 28  1  0  0  0  0
  7  8  2  0  0  0  0
  7 29  1  0  0  0  0
  8 30  1  0  0  0  0
  9 10  1  0  0  0  0
  9 16  1  0  0  0  0
 10 11  2  0  0  0  0
 10 15  1  0  0  0  0
 11 12  1  0  0  0  0
 11 31  1  0  0  0  0
 12 13  2  0  0  0  0
 12 32  1  0  0  0  0
 13 14  1  0  0  0  0
 13 33  1  0  0  0  0
 14 15  2  0  0  0  0
 14 34  1  0  0  0  0
 15 35  1  0  0  0  0
 16 17  2  0  0  0  0
 16 21  1  0  0  0  0
 17 18  1  0  0  0  0
 17 36  1  0  0  0  0
 18 19  2  0  0  0  0
 18 37  1  0  0  0  0
 19 20  1  0  0  0  0
 19 38  1  0  0  0  0
 20 21  2  0  0  0  0
 20 39  1  0  0  0  0
 21 40  1  0  0  0  0
 22 41  1  0  0  0  0
 22 42  1  0  0  0  0
M  END
$$$$
