Title Card Required
 OpenBabel03192317493D

170175  0  0  0  0  0  0  0  0999 V2000
   -0.4604   -2.2262    0.0669 C   0  0  0  0  0  0  0  0  0  0  0  0
   -1.6867   -1.6709    0.4471 C   0  0  0  0  0  0  0  0  0  0  0  0
   -2.1880   -1.9003    1.7376 C   0  0  0  0  0  0  0  0  0  0  0  0
   -1.4658   -2.6716    2.6369 C   0  0  0  0  0  0  0  0  0  0  0  0
   -0.2387   -3.2297    2.2742 C   0  0  0  0  0  0  0  0  0  0  0  0
    0.2642   -3.0076    0.9922 C   0  0  0  0  0  0  0  0  0  0  0  0
    0.1371   -1.9580   -1.2760 C   0  0  0  0  0  0  0  0  0  0  0  0
    1.2501   -1.1213   -1.4256 C   0  0  0  0  0  0  0  0  0  0  0  0
    1.7639   -0.8549   -2.7054 C   0  0  0  0  0  0  0  0  0  0  0  0
    1.1733   -1.4294   -3.8216 C   0  0  0  0  0  0  0  0  0  0  0  0
    0.0656   -2.2704   -3.6883 C   0  0  0  0  0  0  0  0  0  0  0  0
   -0.4509   -2.5388   -2.4208 C   0  0  0  0  0  0  0  0  0  0  0  0
   -1.5233   -3.3313   -2.2014 O   0  0  0  0  0  0  0  0  0  0  0  0
   -2.2378   -3.8096   -3.3099 C   0  0  0  0  0  0  0  0  0  0  0  0
    1.4554   -3.4819    0.5622 O   0  0  0  0  0  0  0  0  0  0  0  0
    2.3138   -4.0891    1.4939 C   0  0  0  0  0  0  0  0  0  0  0  0
    1.9622   -0.3690    0.1035 P   0  0  0  0  0  0  0  0  0  0  0  0
    3.5715   -1.2491    0.2950 C   0  0  0  0  0  0  0  0  0  0  0  0
    4.1019   -2.1236   -0.6476 C   0  0  0  0  0  0  0  0  0  0  0  0
    5.3190   -2.7848   -0.4209 C   0  0  0  0  0  0  0  0  0  0  0  0
    5.9896   -2.5344    0.7771 C   0  0  0  0  0  0  0  0  0  0  0  0
    5.4737   -1.6718    1.7601 C   0  0  0  0  0  0  0  0  0  0  0  0
    4.2526   -1.0473    1.5061 C   0  0  0  0  0  0  0  0  0  0  0  0
    6.2538   -1.4579    3.0612 C   0  0  0  0  0  0  0  0  0  0  0  0
    7.6169   -0.8275    2.7343 C   0  0  0  0  0  0  0  0  0  0  0  0
    5.5118   -0.5316    4.0283 C   0  0  0  0  0  0  0  0  0  0  0  0
    6.4665   -2.8122    3.7572 C   0  0  0  0  0  0  0  0  0  0  0  0
    5.8378   -3.7674   -1.4762 C   0  0  0  0  0  0  0  0  0  0  0  0
    5.9178   -3.0663   -2.8419 C   0  0  0  0  0  0  0  0  0  0  0  0
    7.2275   -4.3062   -1.1278 C   0  0  0  0  0  0  0  0  0  0  0  0
    4.8606   -4.9517   -1.5667 C   0  0  0  0  0  0  0  0  0  0  0  0
    2.5066    1.2754   -0.5339 C   0  0  0  0  0  0  0  0  0  0  0  0
    1.5878    2.0428   -1.2707 C   0  0  0  0  0  0  0  0  0  0  0  0
    1.9110    3.3286   -1.6978 C   0  0  0  0  0  0  0  0  0  0  0  0
    3.1619    3.8586   -1.3328 C   0  0  0  0  0  0  0  0  0  0  0  0
    4.0844    3.1321   -0.5833 C   0  0  0  0  0  0  0  0  0  0  0  0
    3.7393    1.8263   -0.1988 C   0  0  0  0  0  0  0  0  0  0  0  0
    5.4493    3.6905   -0.1674 C   0  0  0  0  0  0  0  0  0  0  0  0
    5.5312    3.7177    1.3678 C   0  0  0  0  0  0  0  0  0  0  0  0
    6.5622    2.7859   -0.7215 C   0  0  0  0  0  0  0  0  0  0  0  0
    5.6731    5.1116   -0.6902 C   0  0  0  0  0  0  0  0  0  0  0  0
    0.9546    4.1778   -2.5403 C   0  0  0  0  0  0  0  0  0  0  0  0
    0.5722    5.4366   -1.7467 C   0  0  0  0  0  0  0  0  0  0  0  0
    1.6533    4.5844   -3.8477 C   0  0  0  0  0  0  0  0  0  0  0  0
   -0.3241    3.4125   -2.8899 C   0  0  0  0  0  0  0  0  0  0  0  0
   -2.5956   -0.6024   -0.7707 P   0  0  0  0  0  0  0  0  0  0  0  0
   -4.3191   -0.9693   -0.2042 C   0  0  0  0  0  0  0  0  0  0  0  0
   -5.1080   -0.1313    0.5758 C   0  0  0  0  0  0  0  0  0  0  0  0
   -6.3896   -0.5254    0.9984 C   0  0  0  0  0  0  0  0  0  0  0  0
   -6.8464   -1.7858    0.6197 C   0  0  0  0  0  0  0  0  0  0  0  0
   -6.0757   -2.6567   -0.1727 C   0  0  0  0  0  0  0  0  0  0  0  0
   -4.8182   -2.2251   -0.5863 C   0  0  0  0  0  0  0  0  0  0  0  0
   -6.6343   -4.0388   -0.5267 C   0  0  0  0  0  0  0  0  0  0  0  0
   -7.9800   -3.8845   -1.2527 C   0  0  0  0  0  0  0  0  0  0  0  0
   -5.6841   -4.8223   -1.4359 C   0  0  0  0  0  0  0  0  0  0  0  0
   -6.8385   -4.8393    0.7699 C   0  0  0  0  0  0  0  0  0  0  0  0
   -7.2188    0.4420    1.8494 C   0  0  0  0  0  0  0  0  0  0  0  0
   -7.5195    1.6987    1.0164 C   0  0  0  0  0  0  0  0  0  0  0  0
   -8.5445   -0.1768    2.2993 C   0  0  0  0  0  0  0  0  0  0  0  0
   -6.4203    0.8411    3.1016 C   0  0  0  0  0  0  0  0  0  0  0  0
   -2.3090    1.0799   -0.0665 C   0  0  0  0  0  0  0  0  0  0  0  0
   -1.3481    1.3618    0.9098 C   0  0  0  0  0  0  0  0  0  0  0  0
   -1.1637    2.6723    1.3773 C   0  0  0  0  0  0  0  0  0  0  0  0
   -1.9724    3.6808    0.8431 C   0  0  0  0  0  0  0  0  0  0  0  0
   -2.9517    3.4316   -0.1290 C   0  0  0  0  0  0  0  0  0  0  0  0
   -3.0861    2.1218   -0.5938 C   0  0  0  0  0  0  0  0  0  0  0  0
   -3.8530    4.5743   -0.6109 C   0  0  0  0  0  0  0  0  0  0  0  0
   -2.9953    5.7195   -1.1669 C   0  0  0  0  0  0  0  0  0  0  0  0
   -4.8149    4.1182   -1.7111 C   0  0  0  0  0  0  0  0  0  0  0  0
   -4.6790    5.0863    0.5805 C   0  0  0  0  0  0  0  0  0  0  0  0
   -0.1493    3.0201    2.4756 C   0  0  0  0  0  0  0  0  0  0  0  0
    0.9218    3.9656    1.9074 C   0  0  0  0  0  0  0  0  0  0  0  0
   -0.8798    3.7112    3.6394 C   0  0  0  0  0  0  0  0  0  0  0  0
    0.5481    1.7728    3.0238 C   0  0  0  0  0  0  0  0  0  0  0  0
   -3.1439   -1.4653    2.0341 H   0  0  0  0  0  0  0  0  0  0  0  0
   -1.8560   -2.8444    3.6415 H   0  0  0  0  0  0  0  0  0  0  0  0
    0.3175   -3.8284    2.9934 H   0  0  0  0  0  0  0  0  0  0  0  0
    2.6191   -0.1849   -2.8152 H   0  0  0  0  0  0  0  0  0  0  0  0
    1.5701   -1.2232   -4.8172 H   0  0  0  0  0  0  0  0  0  0  0  0
   -0.3884   -2.7047   -4.5774 H   0  0  0  0  0  0  0  0  0  0  0  0
   -2.6220   -2.9779   -3.9240 H   0  0  0  0  0  0  0  0  0  0  0  0
   -1.6177   -4.4697   -3.9389 H   0  0  0  0  0  0  0  0  0  0  0  0
   -3.0807   -4.3873   -2.9137 H   0  0  0  0  0  0  0  0  0  0  0  0
    2.5147   -3.4170    2.3454 H   0  0  0  0  0  0  0  0  0  0  0  0
    1.8956   -5.0389    1.8674 H   0  0  0  0  0  0  0  0  0  0  0  0
    3.2567   -4.2829    0.9686 H   0  0  0  0  0  0  0  0  0  0  0  0
    3.5447   -2.3140   -1.5660 H   0  0  0  0  0  0  0  0  0  0  0  0
    6.9414   -3.0308    0.9690 H   0  0  0  0  0  0  0  0  0  0  0  0
    3.8022   -0.3891    2.2521 H   0  0  0  0  0  0  0  0  0  0  0  0
    7.4849    0.1460    2.2382 H   0  0  0  0  0  0  0  0  0  0  0  0
    8.1949   -0.6698    3.6580 H   0  0  0  0  0  0  0  0  0  0  0  0
    8.2103   -1.4701    2.0681 H   0  0  0  0  0  0  0  0  0  0  0  0
    4.5284   -0.9392    4.3058 H   0  0  0  0  0  0  0  0  0  0  0  0
    6.0998   -0.4130    4.9500 H   0  0  0  0  0  0  0  0  0  0  0  0
    5.3603    0.4686    3.5960 H   0  0  0  0  0  0  0  0  0  0  0  0
    5.5002   -3.2892    3.9805 H   0  0  0  0  0  0  0  0  0  0  0  0
    7.0501   -3.5033    3.1325 H   0  0  0  0  0  0  0  0  0  0  0  0
    7.0102   -2.6729    4.7041 H   0  0  0  0  0  0  0  0  0  0  0  0
    6.5886   -2.1956   -2.7948 H   0  0  0  0  0  0  0  0  0  0  0  0
    6.3068   -3.7629   -3.6004 H   0  0  0  0  0  0  0  0  0  0  0  0
    4.9316   -2.7184   -3.1806 H   0  0  0  0  0  0  0  0  0  0  0  0
    7.2206   -4.8643   -0.1800 H   0  0  0  0  0  0  0  0  0  0  0  0
    7.5656   -4.9936   -1.9170 H   0  0  0  0  0  0  0  0  0  0  0  0
    7.9659   -3.4945   -1.0471 H   0  0  0  0  0  0  0  0  0  0  0  0
    4.8334   -5.5059   -0.6157 H   0  0  0  0  0  0  0  0  0  0  0  0
    3.8380   -4.6145   -1.7927 H   0  0  0  0  0  0  0  0  0  0  0  0
    5.1765   -5.6483   -2.3587 H   0  0  0  0  0  0  0  0  0  0  0  0
    0.6158    1.6102   -1.5141 H   0  0  0  0  0  0  0  0  0  0  0  0
    3.4096    4.8709   -1.6519 H   0  0  0  0  0  0  0  0  0  0  0  0
    4.4578    1.2295    0.3655 H   0  0  0  0  0  0  0  0  0  0  0  0
    5.4236    2.7091    1.7934 H   0  0  0  0  0  0  0  0  0  0  0  0
    6.5029    4.1218    1.6923 H   0  0  0  0  0  0  0  0  0  0  0  0
    4.7340    4.3491    1.7879 H   0  0  0  0  0  0  0  0  0  0  0  0
    6.5203    2.7462   -1.8200 H   0  0  0  0  0  0  0  0  0  0  0  0
    7.5492    3.1744   -0.4259 H   0  0  0  0  0  0  0  0  0  0  0  0
    6.4757    1.7571   -0.3424 H   0  0  0  0  0  0  0  0  0  0  0  0
    5.6375    5.1472   -1.7891 H   0  0  0  0  0  0  0  0  0  0  0  0
    4.9205    5.8105   -0.2963 H   0  0  0  0  0  0  0  0  0  0  0  0
    6.6635    5.4701   -0.3730 H   0  0  0  0  0  0  0  0  0  0  0  0
    1.4599    6.0169   -1.4542 H   0  0  0  0  0  0  0  0  0  0  0  0
   -0.0769    6.0888   -2.3520 H   0  0  0  0  0  0  0  0  0  0  0  0
    0.0260    5.1567   -0.8329 H   0  0  0  0  0  0  0  0  0  0  0  0
    1.9512    3.6946   -4.4223 H   0  0  0  0  0  0  0  0  0  0  0  0
    0.9725    5.1859   -4.4696 H   0  0  0  0  0  0  0  0  0  0  0  0
    2.5547    5.1852   -3.6592 H   0  0  0  0  0  0  0  0  0  0  0  0
   -0.1024    2.4944   -3.4554 H   0  0  0  0  0  0  0  0  0  0  0  0
   -0.8890    3.1339   -1.9872 H   0  0  0  0  0  0  0  0  0  0  0  0
   -0.9733    4.0446   -3.5156 H   0  0  0  0  0  0  0  0  0  0  0  0
   -4.7171    0.8413    0.8806 H   0  0  0  0  0  0  0  0  0  0  0  0
   -7.8318   -2.1175    0.9477 H   0  0  0  0  0  0  0  0  0  0  0  0
   -4.1804   -2.8682   -1.1963 H   0  0  0  0  0  0  0  0  0  0  0  0
   -7.8567   -3.3095   -2.1824 H   0  0  0  0  0  0  0  0  0  0  0  0
   -8.3890   -4.8742   -1.5083 H   0  0  0  0  0  0  0  0  0  0  0  0
   -8.7218   -3.3656   -0.6292 H   0  0  0  0  0  0  0  0  0  0  0  0
   -4.7066   -4.9817   -0.9565 H   0  0  0  0  0  0  0  0  0  0  0  0
   -6.1160   -5.8089   -1.6599 H   0  0  0  0  0  0  0  0  0  0  0  0
   -5.5247   -4.2974   -2.3901 H   0  0  0  0  0  0  0  0  0  0  0  0
   -5.8846   -4.9600    1.3044 H   0  0  0  0  0  0  0  0  0  0  0  0
   -7.5446   -4.3360    1.4462 H   0  0  0  0  0  0  0  0  0  0  0  0
   -7.2394   -5.8396    0.5434 H   0  0  0  0  0  0  0  0  0  0  0  0
   -8.1064    1.4419    0.1219 H   0  0  0  0  0  0  0  0  0  0  0  0
   -8.0921    2.4267    1.6119 H   0  0  0  0  0  0  0  0  0  0  0  0
   -6.5902    2.1841    0.6837 H   0  0  0  0  0  0  0  0  0  0  0  0
   -8.3805   -1.0788    2.9078 H   0  0  0  0  0  0  0  0  0  0  0  0
   -9.1016    0.5470    2.9121 H   0  0  0  0  0  0  0  0  0  0  0  0
   -9.1780   -0.4475    1.4418 H   0  0  0  0  0  0  0  0  0  0  0  0
   -6.1610   -0.0464    3.6981 H   0  0  0  0  0  0  0  0  0  0  0  0
   -5.4868    1.3612    2.8423 H   0  0  0  0  0  0  0  0  0  0  0  0
   -7.0182    1.5183    3.7308 H   0  0  0  0  0  0  0  0  0  0  0  0
   -0.7448    0.5475    1.3138 H   0  0  0  0  0  0  0  0  0  0  0  0
   -1.8494    4.7023    1.2124 H   0  0  0  0  0  0  0  0  0  0  0  0
   -3.8219    1.8868   -1.3656 H   0  0  0  0  0  0  0  0  0  0  0  0
   -2.3922    5.3723   -2.0182 H   0  0  0  0  0  0  0  0  0  0  0  0
   -3.6388    6.5446   -1.5094 H   0  0  0  0  0  0  0  0  0  0  0  0
   -2.3073    6.1218   -0.4089 H   0  0  0  0  0  0  0  0  0  0  0  0
   -5.4892    3.3228   -1.3601 H   0  0  0  0  0  0  0  0  0  0  0  0
   -5.4365    4.9669   -2.0324 H   0  0  0  0  0  0  0  0  0  0  0  0
   -4.2695    3.7449   -2.5910 H   0  0  0  0  0  0  0  0  0  0  0  0
   -5.3039    4.2814    0.9964 H   0  0  0  0  0  0  0  0  0  0  0  0
   -4.0319    5.4614    1.3868 H   0  0  0  0  0  0  0  0  0  0  0  0
   -5.3396    5.9079    0.2626 H   0  0  0  0  0  0  0  0  0  0  0  0
    0.4776    4.8997    1.5311 H   0  0  0  0  0  0  0  0  0  0  0  0
    1.6456    4.2302    2.6945 H   0  0  0  0  0  0  0  0  0  0  0  0
    1.4680    3.4869    1.0799 H   0  0  0  0  0  0  0  0  0  0  0  0
   -1.6648    3.0571    4.0477 H   0  0  0  0  0  0  0  0  0  0  0  0
   -0.1670    3.9411    4.4462 H   0  0  0  0  0  0  0  0  0  0  0  0
   -1.3502    4.6550    3.3285 H   0  0  0  0  0  0  0  0  0  0  0  0
   -0.1726    1.0603    3.4538 H   0  0  0  0  0  0  0  0  0  0  0  0
    1.1136    1.2498    2.2400 H   0  0  0  0  0  0  0  0  0  0  0  0
    1.2519    2.0673    3.8168 H   0  0  0  0  0  0  0  0  0  0  0  0
  1  2  2  0  0  0  0
  1  6  1  0  0  0  0
  1  7  1  0  0  0  0
  2  3  1  0  0  0  0
  2 46  1  0  0  0  0
  3  4  2  0  0  0  0
  3 75  1  0  0  0  0
  4  5  1  0  0  0  0
  4 76  1  0  0  0  0
  5  6  2  0  0  0  0
  5 77  1  0  0  0  0
  6 15  1  0  0  0  0
  7  8  2  0  0  0  0
  7 12  1  0  0  0  0
  8  9  1  0  0  0  0
  8 17  1  0  0  0  0
  9 10  2  0  0  0  0
  9 78  1  0  0  0  0
 10 11  1  0  0  0  0
 10 79  1  0  0  0  0
 11 12  2  0  0  0  0
 11 80  1  0  0  0  0
 12 13  1  0  0  0  0
 13 14  1  0  0  0  0
 14 81  1  0  0  0  0
 14 82  1  0  0  0  0
 14 83  1  0  0  0  0
 15 16  1  0  0  0  0
 16 84  1  0  0  0  0
 16 85  1  0  0  0  0
 16 86  1  0  0  0  0
 17 18  1  0  0  0  0
 17 32  1  0  0  0  0
 18 19  2  0  0  0  0
 18 23  1  0  0  0  0
 19 20  1  0  0  0  0
 19 87  1  0  0  0  0
 20 21  2  0  0  0  0
 20 28  1  0  0  0  0
 21 22  1  0  0  0  0
 21 88  1  0  0  0  0
 22 23  2  0  0  0  0
 22 24  1  0  0  0  0
 23 89  1  0  0  0  0
 24 25  1  0  0  0  0
 24 26  1  0  0  0  0
 24 27  1  0  0  0  0
 25 90  1  0  0  0  0
 25 91  1  0  0  0  0
 25 92  1  0  0  0  0
 26 93  1  0  0  0  0
 26 94  1  0  0  0  0
 26 95  1  0  0  0  0
 27 96  1  0  0  0  0
 27 97  1  0  0  0  0
 27 98  1  0  0  0  0
 28 29  1  0  0  0  0
 28 30  1  0  0  0  0
 28 31  1  0  0  0  0
 29 99  1  0  0  0  0
 29100  1  0  0  0  0
 29101  1  0  0  0  0
 30102  1  0  0  0  0
 30103  1  0  0  0  0
 30104  1  0  0  0  0
 31105  1  0  0  0  0
 31106  1  0  0  0  0
 31107  1  0  0  0  0
 32 33  2  0  0  0  0
 32 37  1  0  0  0  0
 33 34  1  0  0  0  0
 33108  1  0  0  0  0
 34 35  2  0  0  0  0
 34 42  1  0  0  0  0
 35 36  1  0  0  0  0
 35109  1  0  0  0  0
 36 37  2  0  0  0  0
 36 38  1  0  0  0  0
 37110  1  0  0  0  0
 38 39  1  0  0  0  0
 38 40  1  0  0  0  0
 38 41  1  0  0  0  0
 39111  1  0  0  0  0
 39112  1  0  0  0  0
 39113  1  0  0  0  0
 40114  1  0  0  0  0
 40115  1  0  0  0  0
 40116  1  0  0  0  0
 41117  1  0  0  0  0
 41118  1  0  0  0  0
 41119  1  0  0  0  0
 42 43  1  0  0  0  0
 42 44  1  0  0  0  0
 42 45  1  0  0  0  0
 43120  1  0  0  0  0
 43121  1  0  0  0  0
 43122  1  0  0  0  0
 44123  1  0  0  0  0
 44124  1  0  0  0  0
 44125  1  0  0  0  0
 45126  1  0  0  0  0
 45127  1  0  0  0  0
 45128  1  0  0  0  0
 46 47  1  0  0  0  0
 46 61  1  0  0  0  0
 47 48  2  0  0  0  0
 47 52  1  0  0  0  0
 48 49  1  0  0  0  0
 48129  1  0  0  0  0
 49 50  2  0  0  0  0
 49 57  1  0  0  0  0
 50 51  1  0  0  0  0
 50130  1  0  0  0  0
 51 52  2  0  0  0  0
 51 53  1  0  0  0  0
 52131  1  0  0  0  0
 53 54  1  0  0  0  0
 53 55  1  0  0  0  0
 53 56  1  0  0  0  0
 54132  1  0  0  0  0
 54133  1  0  0  0  0
 54134  1  0  0  0  0
 55135  1  0  0  0  0
 55136  1  0  0  0  0
 55137  1  0  0  0  0
 56138  1  0  0  0  0
 56139  1  0  0  0  0
 56140  1  0  0  0  0
 57 58  1  0  0  0  0
 57 59  1  0  0  0  0
 57 60  1  0  0  0  0
 58141  1  0  0  0  0
 58142  1  0  0  0  0
 58143  1  0  0  0  0
 59144  1  0  0  0  0
 59145  1  0  0  0  0
 59146  1  0  0  0  0
 60147  1  0  0  0  0
 60148  1  0  0  0  0
 60149  1  0  0  0  0
 61 62  2  0  0  0  0
 61 66  1  0  0  0  0
 62 63  1  0  0  0  0
 62150  1  0  0  0  0
 63 64  2  0  0  0  0
 63 71  1  0  0  0  0
 64 65  1  0  0  0  0
 64151  1  0  0  0  0
 65 66  2  0  0  0  0
 65 67  1  0  0  0  0
 66152  1  0  0  0  0
 67 68  1  0  0  0  0
 67 69  1  0  0  0  0
 67 70  1  0  0  0  0
 68153  1  0  0  0  0
 68154  1  0  0  0  0
 68155  1  0  0  0  0
 69156  1  0  0  0  0
 69157  1  0  0  0  0
 69158  1  0  0  0  0
 70159  1  0  0  0  0
 70160  1  0  0  0  0
 70161  1  0  0  0  0
 71 72  1  0  0  0  0
 71 73  1  0  0  0  0
 71 74  1  0  0  0  0
 72162  1  0  0  0  0
 72163  1  0  0  0  0
 72164  1  0  0  0  0
 73165  1  0  0  0  0
 73166  1  0  0  0  0
 73167  1  0  0  0  0
 74168  1  0  0  0  0
 74169  1  0  0  0  0
 74170  1  0  0  0  0
M  END
$$$$
