Title Card Required
 OpenBabel03192317453D

 81 86  0  0  1  0  0  0  0  0999 V2000
    1.6282    4.7811    0.9624 C   0  0  0  0  0  0  0  0  0  0  0  0
    1.3514    3.3253    0.5742 C   0  0  0  0  0  0  0  0  0  0  0  0
    2.6491    2.5588    0.3584 C   0  0  0  0  0  0  0  0  0  0  0  0
    0.5230    2.6603    2.1261 S   0  0  1  0  0  0  0  0  0  0  0  0
   -0.8836    3.1734    2.0322 O   0  0  0  0  0  0  0  0  0  0  0  0
    0.5622    0.9676    1.9792 N   0  0  0  0  0  0  0  0  0  0  0  0
    0.4099    3.2886   -0.6239 C   0  0  0  0  0  0  0  0  0  0  0  0
    1.6420    0.3563    2.7448 C   0  0  0  0  0  0  0  0  0  0  0  0
    0.0082    0.2617    0.8018 C   0  0  2  0  0  0  0  0  0  0  0  0
   -1.4748    0.6360    0.6706 C   0  0  0  0  0  0  0  0  0  0  0  0
   -2.4007    0.0562   -0.8322 P   0  0  0  0  0  0  0  0  0  0  0  0
   -2.9303   -1.6521   -0.3484 C   0  0  0  0  0  0  0  0  0  0  0  0
   -3.7903   -1.8946    0.7317 C   0  0  0  0  0  0  0  0  0  0  0  0
   -4.1174   -3.1977    1.0965 C   0  0  0  0  0  0  0  0  0  0  0  0
   -3.5941   -4.2781    0.3816 C   0  0  0  0  0  0  0  0  0  0  0  0
   -2.7512   -4.0480   -0.7027 C   0  0  0  0  0  0  0  0  0  0  0  0
   -2.4275   -2.7400   -1.0685 C   0  0  0  0  0  0  0  0  0  0  0  0
   -3.9891    0.9557   -0.5478 C   0  0  0  0  0  0  0  0  0  0  0  0
   -4.1537    2.0103    0.3599 C   0  0  0  0  0  0  0  0  0  0  0  0
   -5.3874    2.6579    0.4708 C   0  0  0  0  0  0  0  0  0  0  0  0
   -6.4671    2.2653   -0.3144 C   0  0  0  0  0  0  0  0  0  0  0  0
   -6.3109    1.2179   -1.2246 C   0  0  0  0  0  0  0  0  0  0  0  0
   -5.0827    0.5760   -1.3427 C   0  0  0  0  0  0  0  0  0  0  0  0
    0.2410   -1.2417    0.8937 C   0  0  0  0  0  0  0  0  0  0  0  0
    1.2633   -1.8859    0.1668 C   0  0  0  0  0  0  0  0  0  0  0  0
    1.3574   -3.2857    0.2211 C   0  0  0  0  0  0  0  0  0  0  0  0
    0.5012   -4.0380    1.0177 C   0  0  0  0  0  0  0  0  0  0  0  0
   -0.4637   -3.3939    1.7918 C   0  0  0  0  0  0  0  0  0  0  0  0
   -0.5892   -2.0120    1.7184 C   0  0  0  0  0  0  0  0  0  0  0  0
    0.7330   -0.5547   -2.4119 C   0  0  0  0  0  0  0  0  0  0  0  0
    0.4489    0.1185   -3.5663 C   0  0  0  0  0  0  0  0  0  0  0  0
    1.4603    0.8759   -4.2297 C   0  0  0  0  0  0  0  0  0  0  0  0
    2.7241    0.9298   -3.7144 C   0  0  0  0  0  0  0  0  0  0  0  0
    3.0549    0.2472   -2.4990 C   0  0  0  0  0  0  0  0  0  0  0  0
    4.3395    0.3061   -1.9543 C   0  0  0  0  0  0  0  0  0  0  0  0
    4.6508   -0.3462   -0.7595 C   0  0  0  0  0  0  0  0  0  0  0  0
    5.9711   -0.2813   -0.2056 C   0  0  0  0  0  0  0  0  0  0  0  0
    6.2736   -0.9057    0.9691 C   0  0  0  0  0  0  0  0  0  0  0  0
    5.2651   -1.6347    1.6681 C   0  0  0  0  0  0  0  0  0  0  0  0
    3.9938   -1.7195    1.1746 C   0  0  0  0  0  0  0  0  0  0  0  0
    3.6296   -1.0834   -0.0617 C   0  0  0  0  0  0  0  0  0  0  0  0
    2.3199   -1.1392   -0.5922 C   0  0  0  0  0  0  0  0  0  0  0  0
    2.0347   -0.5032   -1.8194 C   0  0  0  0  0  0  0  0  0  0  0  0
    2.2905    4.8435    1.8390 H   0  0  0  0  0  0  0  0  0  0  0  0
    0.6873    5.2997    1.1961 H   0  0  0  0  0  0  0  0  0  0  0  0
    2.1162    5.2995    0.1231 H   0  0  0  0  0  0  0  0  0  0  0  0
    3.2778    2.5678    1.2636 H   0  0  0  0  0  0  0  0  0  0  0  0
    2.4699    1.5118    0.0738 H   0  0  0  0  0  0  0  0  0  0  0  0
    3.2235    3.0298   -0.4548 H   0  0  0  0  0  0  0  0  0  0  0  0
   -0.5817    3.6637   -0.3296 H   0  0  0  0  0  0  0  0  0  0  0  0
    0.8071    3.9479   -1.4115 H   0  0  0  0  0  0  0  0  0  0  0  0
    0.3009    2.2865   -1.0623 H   0  0  0  0  0  0  0  0  0  0  0  0
    1.8920    1.0211    3.5824 H   0  0  0  0  0  0  0  0  0  0  0  0
    1.3176   -0.6076    3.1605 H   0  0  0  0  0  0  0  0  0  0  0  0
    2.5574    0.1912    2.1522 H   0  0  0  0  0  0  0  0  0  0  0  0
    0.5254    0.6026   -0.1052 H   0  0  0  0  0  0  0  0  0  0  0  0
   -2.0150    0.3898    1.5986 H   0  0  0  0  0  0  0  0  0  0  0  0
   -1.5172    1.7277    0.5938 H   0  0  0  0  0  0  0  0  0  0  0  0
   -4.2103   -1.0513    1.2875 H   0  0  0  0  0  0  0  0  0  0  0  0
   -4.7896   -3.3741    1.9383 H   0  0  0  0  0  0  0  0  0  0  0  0
   -3.8525   -5.2994    0.6674 H   0  0  0  0  0  0  0  0  0  0  0  0
   -2.3430   -4.8867   -1.2692 H   0  0  0  0  0  0  0  0  0  0  0  0
   -1.7719   -2.5658   -1.9255 H   0  0  0  0  0  0  0  0  0  0  0  0
   -3.3322    2.3481    0.9955 H   0  0  0  0  0  0  0  0  0  0  0  0
   -5.4977    3.4752    1.1854 H   0  0  0  0  0  0  0  0  0  0  0  0
   -7.4286    2.7728   -0.2207 H   0  0  0  0  0  0  0  0  0  0  0  0
   -7.1498    0.9033   -1.8478 H   0  0  0  0  0  0  0  0  0  0  0  0
   -4.9679   -0.2416   -2.0599 H   0  0  0  0  0  0  0  0  0  0  0  0
    2.1403   -3.7786   -0.3593 H   0  0  0  0  0  0  0  0  0  0  0  0
    0.5949   -5.1248    1.0428 H   0  0  0  0  0  0  0  0  0  0  0  0
   -1.1338   -3.9687    2.4328 H   0  0  0  0  0  0  0  0  0  0  0  0
   -1.3622   -1.5127    2.3047 H   0  0  0  0  0  0  0  0  0  0  0  0
   -0.0436   -1.1322   -1.9126 H   0  0  0  0  0  0  0  0  0  0  0  0
   -0.5627    0.0811   -3.9735 H   0  0  0  0  0  0  0  0  0  0  0  0
    1.2192    1.4081   -5.1509 H   0  0  0  0  0  0  0  0  0  0  0  0
    3.5087    1.4990   -4.2174 H   0  0  0  0  0  0  0  0  0  0  0  0
    5.1159    0.8762   -2.4707 H   0  0  0  0  0  0  0  0  0  0  0  0
    6.7317    0.2817   -0.7503 H   0  0  0  0  0  0  0  0  0  0  0  0
    7.2827   -0.8491    1.3797 H   0  0  0  0  0  0  0  0  0  0  0  0
    5.5137   -2.1281    2.6088 H   0  0  0  0  0  0  0  0  0  0  0  0
    3.2329   -2.2719    1.7262 H   0  0  0  0  0  0  0  0  0  0  0  0
  1  2  1  0  0  0  0
  1 44  1  0  0  0  0
  1 45  1  0  0  0  0
  1 46  1  0  0  0  0
  2  3  1  0  0  0  0
  2  4  1  0  0  0  0
  2  7  1  0  0  0  0
  3 47  1  0  0  0  0
  3 48  1  0  0  0  0
  3 49  1  0  0  0  0
  4  5  2  6  0  0  0
  4  6  1  0  0  0  0
  6  8  1  0  0  0  0
  6  9  1  0  0  0  0
  7 50  1  0  0  0  0
  7 51  1  0  0  0  0
  7 52  1  0  0  0  0
  8 53  1  0  0  0  0
  8 54  1  0  0  0  0
  8 55  1  0  0  0  0
  9 10  1  0  0  0  0
  9 24  1  0  0  0  0
  9 56  1  6  0  0  0
 10 11  1  0  0  0  0
 10 57  1  0  0  0  0
 10 58  1  0  0  0  0
 11 12  1  0  0  0  0
 11 18  1  0  0  0  0
 12 13  2  0  0  0  0
 12 17  1  0  0  0  0
 13 14  1  0  0  0  0
 13 59  1  0  0  0  0
 14 15  2  0  0  0  0
 14 60  1  0  0  0  0
 15 16  1  0  0  0  0
 15 61  1  0  0  0  0
 16 17  2  0  0  0  0
 16 62  1  0  0  0  0
 17 63  1  0  0  0  0
 18 19  2  0  0  0  0
 18 23  1  0  0  0  0
 19 20  1  0  0  0  0
 19 64  1  0  0  0  0
 20 21  2  0  0  0  0
 20 65  1  0  0  0  0
 21 22  1  0  0  0  0
 21 66  1  0  0  0  0
 22 23  2  0  0  0  0
 22 67  1  0  0  0  0
 23 68  1  0  0  0  0
 24 25  2  0  0  0  0
 24 29  1  0  0  0  0
 25 26  1  0  0  0  0
 25 42  1  0  0  0  0
 26 27  2  0  0  0  0
 26 69  1  0  0  0  0
 27 28  1  0  0  0  0
 27 70  1  0  0  0  0
 28 29  2  0  0  0  0
 28 71  1  0  0  0  0
 29 72  1  0  0  0  0
 30 31  2  0  0  0  0
 30 43  1  0  0  0  0
 30 73  1  0  0  0  0
 31 32  1  0  0  0  0
 31 74  1  0  0  0  0
 32 33  2  0  0  0  0
 32 75  1  0  0  0  0
 33 34  1  0  0  0  0
 33 76  1  0  0  0  0
 34 35  2  0  0  0  0
 34 43  1  0  0  0  0
 35 36  1  0  0  0  0
 35 77  1  0  0  0  0
 36 37  2  0  0  0  0
 36 41  1  0  0  0  0
 37 38  1  0  0  0  0
 37 78  1  0  0  0  0
 38 39  2  0  0  0  0
 38 79  1  0  0  0  0
 39 40  1  0  0  0  0
 39 80  1  0  0  0  0
 40 41  2  0  0  0  0
 40 81  1  0  0  0  0
 41 42  1  0  0  0  0
 42 43  2  0  0  0  0
M  END
$$$$
