Title Card Required
 OpenBabel03192317493D

 57 63  0  0  1  0  0  0  0  0999 V2000
    0.8779    3.4967    0.2180 C   0  0  0  0  0  0  0  0  0  0  0  0
   -0.4916    3.5460   -0.2649 C   0  0  0  0  0  0  0  0  0  0  0  0
   -0.8976    2.2016   -0.3511 C   0  0  0  0  0  0  0  0  0  0  0  0
    0.0955    1.3604    0.0331 O   0  0  0  0  0  0  0  0  0  0  0  0
    1.1620    2.1277    0.3744 C   0  0  0  0  0  0  0  0  0  0  0  0
   -1.3742    4.5679   -0.6168 C   0  0  0  0  0  0  0  0  0  0  0  0
   -2.6519    4.2217   -1.0500 C   0  0  0  0  0  0  0  0  0  0  0  0
   -3.0420    2.8822   -1.1286 C   0  0  0  0  0  0  0  0  0  0  0  0
   -2.1770    1.8376   -0.7815 C   0  0  0  0  0  0  0  0  0  0  0  0
    2.4053    1.6728    0.8247 C   0  0  0  0  0  0  0  0  0  0  0  0
    3.3620    2.6522    1.1158 C   0  0  0  0  0  0  0  0  0  0  0  0
    3.0925    4.0155    0.9694 C   0  0  0  0  0  0  0  0  0  0  0  0
    1.8490    4.4525    0.5191 C   0  0  0  0  0  0  0  0  0  0  0  0
   -2.6613    0.4483   -0.8714 C   0  0  0  0  0  0  0  0  0  0  0  0
    2.7578    0.2527    0.9990 C   0  0  0  0  0  0  0  0  0  0  0  0
   -1.7751   -0.5278   -0.5985 O   0  0  0  0  0  0  0  0  0  0  0  0
   -2.4897   -1.7608   -0.6777 C   0  0  0  0  0  0  0  0  0  0  0  0
   -3.9125   -1.3385   -1.1553 C   0  0  2  0  0  0  0  0  0  0  0  0
   -3.8486    0.1187   -1.1837 N   0  0  0  0  0  0  0  0  0  0  0  0
    3.8778   -0.1675    1.4275 N   0  0  0  0  0  0  0  0  0  0  0  0
    3.8381   -1.6316    1.3402 C   0  0  1  0  0  0  0  0  0  0  0  0
    2.3454   -1.9277    1.0415 C   0  0  0  0  0  0  0  0  0  0  0  0
    1.8210   -0.6575    0.6556 O   0  0  0  0  0  0  0  0  0  0  0  0
    4.7837   -2.1187    0.2595 C   0  0  0  0  0  0  0  0  0  0  0  0
   -5.0140   -1.8621   -0.2573 C   0  0  0  0  0  0  0  0  0  0  0  0
    5.8923   -2.9073    0.5667 C   0  0  0  0  0  0  0  0  0  0  0  0
    6.7561   -3.3402   -0.4408 C   0  0  0  0  0  0  0  0  0  0  0  0
    6.5156   -2.9856   -1.7658 C   0  0  0  0  0  0  0  0  0  0  0  0
    5.4076   -2.1962   -2.0815 C   0  0  0  0  0  0  0  0  0  0  0  0
    4.5490   -1.7660   -1.0747 C   0  0  0  0  0  0  0  0  0  0  0  0
   -5.4690   -1.1069    0.8263 C   0  0  0  0  0  0  0  0  0  0  0  0
   -6.4382   -1.6204    1.6864 C   0  0  0  0  0  0  0  0  0  0  0  0
   -6.9634   -2.8941    1.4720 C   0  0  0  0  0  0  0  0  0  0  0  0
   -6.5183   -3.6508    0.3887 C   0  0  0  0  0  0  0  0  0  0  0  0
   -5.5506   -3.1350   -0.4721 C   0  0  0  0  0  0  0  0  0  0  0  0
   -1.0687    5.6134   -0.5536 H   0  0  0  0  0  0  0  0  0  0  0  0
   -3.3596    5.0018   -1.3311 H   0  0  0  0  0  0  0  0  0  0  0  0
   -4.0429    2.6069   -1.4635 H   0  0  0  0  0  0  0  0  0  0  0  0
    4.3359    2.3055    1.4636 H   0  0  0  0  0  0  0  0  0  0  0  0
    3.8693    4.7422    1.2085 H   0  0  0  0  0  0  0  0  0  0  0  0
    1.6379    5.5165    0.4020 H   0  0  0  0  0  0  0  0  0  0  0  0
   -2.5067   -2.2248    0.3192 H   0  0  0  0  0  0  0  0  0  0  0  0
   -1.9706   -2.4260   -1.3799 H   0  0  0  0  0  0  0  0  0  0  0  0
   -4.1042   -1.7036   -2.1778 H   0  0  0  0  0  0  0  0  0  0  0  0
    4.1487   -2.0664    2.3009 H   0  0  0  0  0  0  0  0  0  0  0  0
    2.1946   -2.6414    0.2219 H   0  0  0  0  0  0  0  0  0  0  0  0
    1.8013   -2.2730    1.9334 H   0  0  0  0  0  0  0  0  0  0  0  0
    6.0847   -3.1825    1.6063 H   0  0  0  0  0  0  0  0  0  0  0  0
    7.6212   -3.9549   -0.1866 H   0  0  0  0  0  0  0  0  0  0  0  0
    7.1902   -3.3227   -2.5543 H   0  0  0  0  0  0  0  0  0  0  0  0
    5.2144   -1.9148   -3.1180 H   0  0  0  0  0  0  0  0  0  0  0  0
    3.6823   -1.1468   -1.3245 H   0  0  0  0  0  0  0  0  0  0  0  0
   -5.0664   -0.1040    0.9786 H   0  0  0  0  0  0  0  0  0  0  0  0
   -6.7881   -1.0192    2.5272 H   0  0  0  0  0  0  0  0  0  0  0  0
   -7.7231   -3.2945    2.1450 H   0  0  0  0  0  0  0  0  0  0  0  0
   -6.9317   -4.6448    0.2095 H   0  0  0  0  0  0  0  0  0  0  0  0
   -5.2127   -3.7269   -1.3269 H   0  0  0  0  0  0  0  0  0  0  0  0
  1  2  1  0  0  0  0
  1  5  2  0  0  0  0
  1 13  1  0  0  0  0
  2  3  2  0  0  0  0
  2  6  1  0  0  0  0
  3  4  1  0  0  0  0
  3  9  1  0  0  0  0
  4  5  1  0  0  0  0
  5 10  1  0  0  0  0
  6  7  2  0  0  0  0
  6 36  1  0  0  0  0
  7  8  1  0  0  0  0
  7 37  1  0  0  0  0
  8  9  2  0  0  0  0
  8 38  1  0  0  0  0
  9 14  1  0  0  0  0
 10 11  2  0  0  0  0
 10 15  1  0  0  0  0
 11 12  1  0  0  0  0
 11 39  1  0  0  0  0
 12 13  2  0  0  0  0
 12 40  1  0  0  0  0
 13 41  1  0  0  0  0
 14 16  1  0  0  0  0
 14 19  2  0  0  0  0
 15 20  2  0  0  0  0
 15 23  1  0  0  0  0
 16 17  1  0  0  0  0
 17 18  1  0  0  0  0
 17 42  1  0  0  0  0
 17 43  1  0  0  0  0
 18 19  1  0  0  0  0
 18 25  1  0  0  0  0
 18 44  1  6  0  0  0
 20 21  1  0  0  0  0
 21 22  1  0  0  0  0
 21 24  1  0  0  0  0
 21 45  1  1  0  0  0
 22 23  1  0  0  0  0
 22 46  1  0  0  0  0
 22 47  1  0  0  0  0
 24 26  2  0  0  0  0
 24 30  1  0  0  0  0
 25 31  2  0  0  0  0
 25 35  1  0  0  0  0
 26 27  1  0  0  0  0
 26 48  1  0  0  0  0
 27 28  2  0  0  0  0
 27 49  1  0  0  0  0
 28 29  1  0  0  0  0
 28 50  1  0  0  0  0
 29 30  2  0  0  0  0
 29 51  1  0  0  0  0
 30 52  1  0  0  0  0
 31 32  1  0  0  0  0
 31 53  1  0  0  0  0
 32 33  2  0  0  0  0
 32 54  1  0  0  0  0
 33 34  1  0  0  0  0
 33 55  1  0  0  0  0
 34 35  2  0  0  0  0
 34 56  1  0  0  0  0
 35 57  1  0  0  0  0
M  END
$$$$
