Title Card Required
 OpenBabel03192317423D

 69 76  0  0  1  0  0  0  0  0999 V2000
   -1.3819   -1.1255   -1.4044 O   0  0  0  0  0  0  0  0  0  0  0  0
   -1.0256   -0.5662   -0.2209 C   0  0  0  0  0  0  0  0  0  0  0  0
   -1.5719   -1.0032    0.8341 N   0  0  0  0  0  0  0  0  0  0  0  0
   -2.5105   -2.0415    0.4114 C   0  0  2  0  0  0  0  0  0  0  0  0
   -2.2238   -2.2457   -1.1050 C   0  0  1  0  0  0  0  0  0  0  0  0
   -0.0390    0.5668   -0.3422 C   0  0  0  0  0  0  0  0  0  0  0  0
    2.7202   -1.5401   -1.4673 C   0  0  2  0  0  0  0  0  0  0  0  0
    3.0983   -0.1629   -2.0985 C   0  0  1  0  0  0  0  0  0  0  0  0
    2.0038    0.7337   -1.7273 N   0  0  0  0  0  0  0  0  0  0  0  0
    1.2007    0.0469   -1.0296 C   0  0  0  0  0  0  0  0  0  0  0  0
    1.4772   -1.2579   -0.8151 O   0  0  0  0  0  0  0  0  0  0  0  0
    3.8255   -1.9216   -0.4676 C   0  0  0  0  0  0  0  0  0  0  0  0
    4.8340   -0.8025   -0.5684 C   0  0  0  0  0  0  0  0  0  0  0  0
    4.4162    0.1932   -1.4522 C   0  0  0  0  0  0  0  0  0  0  0  0
   -3.9489   -1.5728    0.4485 C   0  0  0  0  0  0  0  0  0  0  0  0
   -4.5306   -1.6262   -0.8199 C   0  0  0  0  0  0  0  0  0  0  0  0
   -3.5631   -2.1676   -1.8482 C   0  0  0  0  0  0  0  0  0  0  0  0
    6.0448   -0.6691    0.1105 C   0  0  0  0  0  0  0  0  0  0  0  0
    6.8103    0.4802   -0.0854 C   0  0  0  0  0  0  0  0  0  0  0  0
    6.3714    1.4896   -0.9483 C   0  0  0  0  0  0  0  0  0  0  0  0
    5.1694    1.3492   -1.6411 C   0  0  0  0  0  0  0  0  0  0  0  0
   -4.6607   -1.0930    1.5446 C   0  0  0  0  0  0  0  0  0  0  0  0
   -5.9825   -0.6882    1.3626 C   0  0  0  0  0  0  0  0  0  0  0  0
   -6.5752   -0.7548    0.0979 C   0  0  0  0  0  0  0  0  0  0  0  0
   -5.8511   -1.2165   -1.0022 C   0  0  0  0  0  0  0  0  0  0  0  0
   -0.6607    1.6813   -1.2287 C   0  0  0  0  0  0  0  0  0  0  0  0
   -1.9050    2.2904   -0.6353 C   0  0  0  0  0  0  0  0  0  0  0  0
   -1.8513    3.4678    0.1184 C   0  0  0  0  0  0  0  0  0  0  0  0
   -3.0037    3.9968    0.6989 C   0  0  0  0  0  0  0  0  0  0  0  0
   -4.2296    3.3543    0.5311 C   0  0  0  0  0  0  0  0  0  0  0  0
   -4.2994    2.1867   -0.2284 C   0  0  0  0  0  0  0  0  0  0  0  0
   -3.1456    1.6647   -0.8081 C   0  0  0  0  0  0  0  0  0  0  0  0
    0.3442    1.1300    1.0513 C   0  0  0  0  0  0  0  0  0  0  0  0
    1.4226    0.3818    1.8016 C   0  0  0  0  0  0  0  0  0  0  0  0
    2.7481    0.8264    1.7306 C   0  0  0  0  0  0  0  0  0  0  0  0
    3.7593    0.1840    2.4457 C   0  0  0  0  0  0  0  0  0  0  0  0
    3.4604   -0.9317    3.2251 C   0  0  0  0  0  0  0  0  0  0  0  0
    2.1439   -1.3935    3.2899 C   0  0  0  0  0  0  0  0  0  0  0  0
    1.1320   -0.7397    2.5899 C   0  0  0  0  0  0  0  0  0  0  0  0
   -2.3610   -2.9498    1.0139 H   0  0  0  0  0  0  0  0  0  0  0  0
   -1.6548   -3.1568   -1.3358 H   0  0  0  0  0  0  0  0  0  0  0  0
    2.5305   -2.3285   -2.2071 H   0  0  0  0  0  0  0  0  0  0  0  0
    3.1883   -0.1908   -3.1955 H   0  0  0  0  0  0  0  0  0  0  0  0
    3.3959   -1.9806    0.5464 H   0  0  0  0  0  0  0  0  0  0  0  0
    4.2692   -2.9009   -0.7001 H   0  0  0  0  0  0  0  0  0  0  0  0
   -3.4756   -1.5281   -2.7392 H   0  0  0  0  0  0  0  0  0  0  0  0
   -3.8727   -3.1662   -2.1935 H   0  0  0  0  0  0  0  0  0  0  0  0
    6.3814   -1.4462    0.8002 H   0  0  0  0  0  0  0  0  0  0  0  0
    7.7586    0.5963    0.4423 H   0  0  0  0  0  0  0  0  0  0  0  0
    6.9768    2.3871   -1.0843 H   0  0  0  0  0  0  0  0  0  0  0  0
    4.8180    2.1295   -2.3189 H   0  0  0  0  0  0  0  0  0  0  0  0
   -4.1838   -1.0260    2.5239 H   0  0  0  0  0  0  0  0  0  0  0  0
   -6.5570   -0.3113    2.2102 H   0  0  0  0  0  0  0  0  0  0  0  0
   -7.6103   -0.4340   -0.0319 H   0  0  0  0  0  0  0  0  0  0  0  0
   -6.3135   -1.2556   -1.9906 H   0  0  0  0  0  0  0  0  0  0  0  0
    0.1203    2.4385   -1.3797 H   0  0  0  0  0  0  0  0  0  0  0  0
   -0.8840    1.2439   -2.2120 H   0  0  0  0  0  0  0  0  0  0  0  0
   -0.8943    3.9792    0.2470 H   0  0  0  0  0  0  0  0  0  0  0  0
   -2.9442    4.9170    1.2826 H   0  0  0  0  0  0  0  0  0  0  0  0
   -5.1314    3.7676    0.9857 H   0  0  0  0  0  0  0  0  0  0  0  0
   -5.2525    1.6744   -0.3711 H   0  0  0  0  0  0  0  0  0  0  0  0
   -3.2035    0.7550   -1.4102 H   0  0  0  0  0  0  0  0  0  0  0  0
    0.6965    2.1584    0.8870 H   0  0  0  0  0  0  0  0  0  0  0  0
   -0.5760    1.1821    1.6491 H   0  0  0  0  0  0  0  0  0  0  0  0
    2.9922    1.6920    1.1087 H   0  0  0  0  0  0  0  0  0  0  0  0
    4.7823    0.5582    2.3845 H   0  0  0  0  0  0  0  0  0  0  0  0
    4.2483   -1.4372    3.7867 H   0  0  0  0  0  0  0  0  0  0  0  0
    1.9007   -2.2643    3.9017 H   0  0  0  0  0  0  0  0  0  0  0  0
    0.1002   -1.0893    2.6425 H   0  0  0  0  0  0  0  0  0  0  0  0
  1  2  1  0  0  0  0
  1  5  1  0  0  0  0
  2  3  2  0  0  0  0
  2  6  1  0  0  0  0
  3  4  1  0  0  0  0
  4  5  1  0  0  0  0
  4 15  1  0  0  0  0
  4 40  1  1  0  0  0
  5 17  1  0  0  0  0
  5 41  1  6  0  0  0
  6 10  1  0  0  0  0
  6 26  1  0  0  0  0
  6 33  1  0  0  0  0
  7  8  1  0  0  0  0
  7 11  1  0  0  0  0
  7 12  1  0  0  0  0
  7 42  1  6  0  0  0
  8  9  1  0  0  0  0
  8 14  1  0  0  0  0
  8 43  1  6  0  0  0
  9 10  2  0  0  0  0
 10 11  1  0  0  0  0
 12 13  1  0  0  0  0
 12 44  1  0  0  0  0
 12 45  1  0  0  0  0
 13 14  2  0  0  0  0
 13 18  1  0  0  0  0
 14 21  1  0  0  0  0
 15 16  2  0  0  0  0
 15 22  1  0  0  0  0
 16 17  1  0  0  0  0
 16 25  1  0  0  0  0
 17 46  1  0  0  0  0
 17 47  1  0  0  0  0
 18 19  2  0  0  0  0
 18 48  1  0  0  0  0
 19 20  1  0  0  0  0
 19 49  1  0  0  0  0
 20 21  2  0  0  0  0
 20 50  1  0  0  0  0
 21 51  1  0  0  0  0
 22 23  2  0  0  0  0
 22 52  1  0  0  0  0
 23 24  1  0  0  0  0
 23 53  1  0  0  0  0
 24 25  2  0  0  0  0
 24 54  1  0  0  0  0
 25 55  1  0  0  0  0
 26 27  1  0  0  0  0
 26 56  1  0  0  0  0
 26 57  1  0  0  0  0
 27 28  2  0  0  0  0
 27 32  1  0  0  0  0
 28 29  1  0  0  0  0
 28 58  1  0  0  0  0
 29 30  2  0  0  0  0
 29 59  1  0  0  0  0
 30 31  1  0  0  0  0
 30 60  1  0  0  0  0
 31 32  2  0  0  0  0
 31 61  1  0  0  0  0
 32 62  1  0  0  0  0
 33 34  1  0  0  0  0
 33 63  1  0  0  0  0
 33 64  1  0  0  0  0
 34 35  2  0  0  0  0
 34 39  1  0  0  0  0
 35 36  1  0  0  0  0
 35 65  1  0  0  0  0
 36 37  2  0  0  0  0
 36 66  1  0  0  0  0
 37 38  1  0  0  0  0
 37 67  1  0  0  0  0
 38 39  2  0  0  0  0
 38 68  1  0  0  0  0
 39 69  1  0  0  0  0
M  END
$$$$
