Title Card Required
 OpenBabel03192317513D

 44 44  0  0  1  0  0  0  0  0999 V2000
   -0.8328   -0.2467    0.3219 N   0  0  0  0  0  0  0  0  0  0  0  0
   -1.7000    0.6151    0.9475 C   0  0  0  0  0  0  0  0  0  0  0  0
   -1.2494    1.9218    1.8722 S   0  0  0  0  0  0  0  0  0  0  0  0
   -3.0115    0.2883    0.7983 N   0  0  0  0  0  0  0  0  0  0  0  0
   -3.6535   -0.3843   -0.3215 C   0  0  2  0  0  0  0  0  0  0  0  0
   -4.3573    0.6584   -1.2158 C   0  0  0  0  0  0  0  0  0  0  0  0
   -5.5356    1.3225   -0.5061 C   0  0  0  0  0  0  0  0  0  0  0  0
   -3.3448    1.6932   -1.7050 C   0  0  0  0  0  0  0  0  0  0  0  0
   -4.5449   -1.4096    0.1898 N   0  0  0  0  0  0  0  0  0  0  0  0
   -5.3345   -2.0504   -0.8438 C   0  0  0  0  0  0  0  0  0  0  0  0
   -3.8321   -2.3935    0.9799 C   0  0  0  0  0  0  0  0  0  0  0  0
    0.5592   -0.1547    0.1820 C   0  0  0  0  0  0  0  0  0  0  0  0
    1.2857   -1.3526    0.1288 C   0  0  0  0  0  0  0  0  0  0  0  0
    2.6597   -1.3319   -0.0683 C   0  0  0  0  0  0  0  0  0  0  0  0
    3.3465   -0.1268   -0.2068 C   0  0  0  0  0  0  0  0  0  0  0  0
    2.6174    1.0551   -0.1540 C   0  0  0  0  0  0  0  0  0  0  0  0
    1.2355    1.0592    0.0304 C   0  0  0  0  0  0  0  0  0  0  0  0
    3.3134    2.3861   -0.2917 C   0  0  0  0  0  0  0  0  0  0  0  0
    4.5785    2.2430   -0.6876 F   0  0  0  0  0  0  0  0  0  0  0  0
    2.6949    3.1638   -1.1818 F   0  0  0  0  0  0  0  0  0  0  0  0
    3.3270    3.0482    0.8645 F   0  0  0  0  0  0  0  0  0  0  0  0
    3.4440   -2.6176   -0.1078 C   0  0  0  0  0  0  0  0  0  0  0  0
    2.6462   -3.6876   -0.1095 F   0  0  0  0  0  0  0  0  0  0  0  0
    4.2105   -2.6829   -1.1974 F   0  0  0  0  0  0  0  0  0  0  0  0
    4.2550   -2.7236    0.9450 F   0  0  0  0  0  0  0  0  0  0  0  0
   -1.2184   -1.1528    0.0792 H   0  0  0  0  0  0  0  0  0  0  0  0
   -3.6225    0.8929    1.3392 H   0  0  0  0  0  0  0  0  0  0  0  0
   -2.8535   -0.8422   -0.9460 H   0  0  0  0  0  0  0  0  0  0  0  0
   -4.7338    0.1187   -2.0989 H   0  0  0  0  0  0  0  0  0  0  0  0
   -5.1881    1.9640    0.3194 H   0  0  0  0  0  0  0  0  0  0  0  0
   -6.0846    1.9716   -1.2025 H   0  0  0  0  0  0  0  0  0  0  0  0
   -6.2310    0.5814   -0.0890 H   0  0  0  0  0  0  0  0  0  0  0  0
   -2.4791    1.2149   -2.1884 H   0  0  0  0  0  0  0  0  0  0  0  0
   -3.8101    2.3668   -2.4380 H   0  0  0  0  0  0  0  0  0  0  0  0
   -2.9706    2.3084   -0.8721 H   0  0  0  0  0  0  0  0  0  0  0  0
   -4.7089   -2.4837   -1.6547 H   0  0  0  0  0  0  0  0  0  0  0  0
   -5.9129   -2.8677   -0.3932 H   0  0  0  0  0  0  0  0  0  0  0  0
   -6.0495   -1.3501   -1.2934 H   0  0  0  0  0  0  0  0  0  0  0  0
   -3.0938   -2.9687    0.3743 H   0  0  0  0  0  0  0  0  0  0  0  0
   -3.3020   -1.9076    1.8083 H   0  0  0  0  0  0  0  0  0  0  0  0
   -4.5438   -3.1133    1.4055 H   0  0  0  0  0  0  0  0  0  0  0  0
    0.7737   -2.3094    0.2444 H   0  0  0  0  0  0  0  0  0  0  0  0
    4.4255   -0.1109   -0.3617 H   0  0  0  0  0  0  0  0  0  0  0  0
    0.6868    1.9987    0.0555 H   0  0  0  0  0  0  0  0  0  0  0  0
  1  2  1  0  0  0  0
  1 12  1  0  0  0  0
  1 26  1  0  0  0  0
  2  3  2  0  0  0  0
  2  4  1  0  0  0  0
  4  5  1  0  0  0  0
  4 27  1  0  0  0  0
  5  6  1  0  0  0  0
  5  9  1  0  0  0  0
  5 28  1  6  0  0  0
  6  7  1  0  0  0  0
  6  8  1  0  0  0  0
  6 29  1  0  0  0  0
  7 30  1  0  0  0  0
  7 31  1  0  0  0  0
  7 32  1  0  0  0  0
  8 33  1  0  0  0  0
  8 34  1  0  0  0  0
  8 35  1  0  0  0  0
  9 10  1  0  0  0  0
  9 11  1  0  0  0  0
 10 36  1  0  0  0  0
 10 37  1  0  0  0  0
 10 38  1  0  0  0  0
 11 39  1  0  0  0  0
 11 40  1  0  0  0  0
 11 41  1  0  0  0  0
 12 13  2  0  0  0  0
 12 17  1  0  0  0  0
 13 14  1  0  0  0  0
 13 42  1  0  0  0  0
 14 15  2  0  0  0  0
 14 22  1  0  0  0  0
 15 16  1  0  0  0  0
 15 43  1  0  0  0  0
 16 17  2  0  0  0  0
 16 18  1  0  0  0  0
 17 44  1  0  0  0  0
 18 19  1  0  0  0  0
 18 20  1  0  0  0  0
 18 21  1  0  0  0  0
 22 23  1  0  0  0  0
 22 24  1  0  0  0  0
 22 25  1  0  0  0  0
M  END
$$$$
