Title Card Required
 OpenBabel03192317443D

 35 37  0  0  1  0  0  0  0  0999 V2000
   -1.1961   -2.0406   -0.1480 O   0  0  0  0  0  0  0  0  0  0  0  0
   -0.9961   -0.7111   -0.2030 C   0  0  0  0  0  0  0  0  0  0  0  0
    0.1936   -0.2801   -0.3138 N   0  0  0  0  0  0  0  0  0  0  0  0
    1.0672   -1.4504   -0.3632 C   0  0  2  0  0  0  0  0  0  0  0  0
    0.0994   -2.6384   -0.1356 C   0  0  0  0  0  0  0  0  0  0  0  0
   -2.2029    0.1536   -0.1431 C   0  0  0  0  0  0  0  0  0  0  0  0
   -2.0452    1.5363   -0.2851 C   0  0  0  0  0  0  0  0  0  0  0  0
   -3.1878    2.3238   -0.2258 C   0  0  0  0  0  0  0  0  0  0  0  0
   -4.4217    1.7075   -0.0318 C   0  0  0  0  0  0  0  0  0  0  0  0
   -4.4770    0.3141    0.0994 C   0  0  0  0  0  0  0  0  0  0  0  0
   -3.3771   -0.4398    0.0426 N   0  0  0  0  0  0  0  0  0  0  0  0
   -5.7766   -0.4115    0.3140 C   0  0  0  0  0  0  0  0  0  0  0  0
    2.1895   -1.3806    0.6782 C   0  0  0  0  0  0  0  0  0  0  0  0
    3.2073   -0.3048    0.3936 C   0  0  0  0  0  0  0  0  0  0  0  0
    2.9046    1.0445    0.6154 C   0  0  0  0  0  0  0  0  0  0  0  0
    3.8377    2.0371    0.3264 C   0  0  0  0  0  0  0  0  0  0  0  0
    5.0884    1.6987   -0.1914 C   0  0  0  0  0  0  0  0  0  0  0  0
    5.3993    0.3599   -0.4185 C   0  0  0  0  0  0  0  0  0  0  0  0
    4.4630   -0.6320   -0.1271 C   0  0  0  0  0  0  0  0  0  0  0  0
    1.5317   -1.4947   -1.3629 H   0  0  0  0  0  0  0  0  0  0  0  0
    0.1450   -3.4043   -0.9204 H   0  0  0  0  0  0  0  0  0  0  0  0
    0.2552   -3.1195    0.8437 H   0  0  0  0  0  0  0  0  0  0  0  0
   -1.0482    1.9481   -0.4383 H   0  0  0  0  0  0  0  0  0  0  0  0
   -3.1210    3.4077   -0.3318 H   0  0  0  0  0  0  0  0  0  0  0  0
   -5.3394    2.2953    0.0169 H   0  0  0  0  0  0  0  0  0  0  0  0
   -5.9249   -1.1527   -0.4835 H   0  0  0  0  0  0  0  0  0  0  0  0
   -5.7421   -0.9629    1.2641 H   0  0  0  0  0  0  0  0  0  0  0  0
   -6.6310    0.2760    0.3298 H   0  0  0  0  0  0  0  0  0  0  0  0
    1.7243   -1.2211    1.6646 H   0  0  0  0  0  0  0  0  0  0  0  0
    2.6922   -2.3602    0.7095 H   0  0  0  0  0  0  0  0  0  0  0  0
    1.9207    1.3081    1.0061 H   0  0  0  0  0  0  0  0  0  0  0  0
    3.5883    3.0841    0.5075 H   0  0  0  0  0  0  0  0  0  0  0  0
    5.8193    2.4778   -0.4138 H   0  0  0  0  0  0  0  0  0  0  0  0
    6.3756    0.0839   -0.8203 H   0  0  0  0  0  0  0  0  0  0  0  0
    4.7137   -1.6813   -0.3025 H   0  0  0  0  0  0  0  0  0  0  0  0
  1  2  1  0  0  0  0
  1  5  1  0  0  0  0
  2  3  2  0  0  0  0
  2  6  1  0  0  0  0
  3  4  1  0  0  0  0
  4  5  1  0  0  0  0
  4 13  1  0  0  0  0
  4 20  1  6  0  0  0
  5 21  1  0  0  0  0
  5 22  1  0  0  0  0
  6  7  2  0  0  0  0
  6 11  1  0  0  0  0
  7  8  1  0  0  0  0
  7 23  1  0  0  0  0
  8  9  2  0  0  0  0
  8 24  1  0  0  0  0
  9 10  1  0  0  0  0
  9 25  1  0  0  0  0
 10 11  2  0  0  0  0
 10 12  1  0  0  0  0
 12 26  1  0  0  0  0
 12 27  1  0  0  0  0
 12 28  1  0  0  0  0
 13 14  1  0  0  0  0
 13 29  1  0  0  0  0
 13 30  1  0  0  0  0
 14 15  2  0  0  0  0
 14 19  1  0  0  0  0
 15 16  1  0  0  0  0
 15 31  1  0  0  0  0
 16 17  2  0  0  0  0
 16 32  1  0  0  0  0
 17 18  1  0  0  0  0
 17 33  1  0  0  0  0
 18 19  2  0  0  0  0
 18 34  1  0  0  0  0
 19 35  1  0  0  0  0
M  END
$$$$
