Title Card Required
 OpenBabel03192317483D

 59 62  0  0  1  0  0  0  0  0999 V2000
   -4.5951   -3.0648   -0.2011 C   0  0  0  0  0  0  0  0  0  0  0  0
    4.8756    1.0716    2.2896 C   0  0  0  0  0  0  0  0  0  0  0  0
    1.2351   -2.8498   -2.4261 C   0  0  0  0  0  0  0  0  0  0  0  0
   -1.6338   -0.4924    2.3942 C   0  0  0  0  0  0  0  0  0  0  0  0
    0.8485   -0.1737    2.3397 C   0  0  0  0  0  0  0  0  0  0  0  0
   -0.6546    1.7630    1.8848 C   0  0  0  0  0  0  0  0  0  0  0  0
   -1.7200    0.6508   -1.0188 C   0  0  1  0  0  0  0  0  0  0  0  0
   -3.1027    0.6101   -0.4422 C   0  0  0  0  0  0  0  0  0  0  0  0
   -4.8361   -0.7555    0.1591 C   0  0  0  0  0  0  0  0  0  0  0  0
   -5.6063    0.3283    0.6267 C   0  0  0  0  0  0  0  0  0  0  0  0
   -5.0585    1.5918    0.5140 C   0  0  0  0  0  0  0  0  0  0  0  0
   -3.7778    1.7530   -0.0342 C   0  0  0  0  0  0  0  0  0  0  0  0
    0.0930    2.0177   -1.2638 C   0  0  0  0  0  0  0  0  0  0  0  0
    0.7639    3.1297   -1.7623 C   0  0  0  0  0  0  0  0  0  0  0  0
    2.1578    3.0902   -1.7937 C   0  0  0  0  0  0  0  0  0  0  0  0
    2.8578    1.9666   -1.3565 C   0  0  0  0  0  0  0  0  0  0  0  0
    2.1759    0.8473   -0.8612 C   0  0  0  0  0  0  0  0  0  0  0  0
    0.7778    0.8893   -0.7952 C   0  0  0  0  0  0  0  0  0  0  0  0
    2.9154   -0.3636   -0.4085 C   0  0  0  0  0  0  0  0  0  0  0  0
   -0.4832    0.2544    1.7070 C   0  0  0  0  0  0  0  0  0  0  0  0
    3.8494   -0.2887    0.6393 C   0  0  0  0  0  0  0  0  0  0  0  0
    2.6579   -1.6166   -0.9929 C   0  0  0  0  0  0  0  0  0  0  0  0
    4.4903   -1.4378    1.1173 C   0  0  0  0  0  0  0  0  0  0  0  0
    4.1934   -2.6669    0.5355 C   0  0  0  0  0  0  0  0  0  0  0  0
    3.2852   -2.7737   -0.5118 C   0  0  0  0  0  0  0  0  0  0  0  0
   -1.2638    1.9827   -1.1927 O   0  0  0  0  0  0  0  0  0  0  0  0
   -3.6327   -0.6190   -0.3591 N   0  0  0  0  0  0  0  0  0  0  0  0
   -5.3735   -1.9781    0.2586 O   0  0  0  0  0  0  0  0  0  0  0  0
    1.7899   -1.6247   -2.0250 O   0  0  0  0  0  0  0  0  0  0  0  0
   -0.3928   -0.3478   -0.0968 P   0  0  1  0  0  0  0  0  0  0  0  0
    4.0387    0.9408    1.1711 O   0  0  0  0  0  0  0  0  0  0  0  0
   -5.1880   -3.9652   -0.0078 H   0  0  0  0  0  0  0  0  0  0  0  0
   -3.6352   -3.1153    0.3325 H   0  0  0  0  0  0  0  0  0  0  0  0
   -4.3825   -2.9706   -1.2755 H   0  0  0  0  0  0  0  0  0  0  0  0
    4.5100    0.4684    3.1372 H   0  0  0  0  0  0  0  0  0  0  0  0
    5.9114    0.7744    2.0571 H   0  0  0  0  0  0  0  0  0  0  0  0
    4.8607    2.1312    2.5676 H   0  0  0  0  0  0  0  0  0  0  0  0
    0.4625   -2.6150   -3.1670 H   0  0  0  0  0  0  0  0  0  0  0  0
    1.9884   -3.5061   -2.8924 H   0  0  0  0  0  0  0  0  0  0  0  0
    0.7709   -3.3689   -1.5717 H   0  0  0  0  0  0  0  0  0  0  0  0
   -1.5656   -1.5793    2.2307 H   0  0  0  0  0  0  0  0  0  0  0  0
   -1.5885   -0.3084    3.4802 H   0  0  0  0  0  0  0  0  0  0  0  0
   -2.6171   -0.1510    2.0398 H   0  0  0  0  0  0  0  0  0  0  0  0
    1.6833    0.4271    1.9489 H   0  0  0  0  0  0  0  0  0  0  0  0
    0.7996   -0.0148    3.4298 H   0  0  0  0  0  0  0  0  0  0  0  0
    1.0714   -1.2376    2.1577 H   0  0  0  0  0  0  0  0  0  0  0  0
    0.1627    2.3196    1.4029 H   0  0  0  0  0  0  0  0  0  0  0  0
   -1.6085    2.1195    1.4742 H   0  0  0  0  0  0  0  0  0  0  0  0
   -0.6376    2.0049    2.9612 H   0  0  0  0  0  0  0  0  0  0  0  0
   -1.7566    0.1613   -2.0112 H   0  0  0  0  0  0  0  0  0  0  0  0
   -6.5933    0.1429    1.0475 H   0  0  0  0  0  0  0  0  0  0  0  0
   -5.6230    2.4631    0.8511 H   0  0  0  0  0  0  0  0  0  0  0  0
   -3.3105    2.7294   -0.1483 H   0  0  0  0  0  0  0  0  0  0  0  0
    0.1988    3.9924   -2.1148 H   0  0  0  0  0  0  0  0  0  0  0  0
    2.7082    3.9494   -2.1806 H   0  0  0  0  0  0  0  0  0  0  0  0
    3.9470    1.9462   -1.3982 H   0  0  0  0  0  0  0  0  0  0  0  0
    5.2036   -1.3835    1.9367 H   0  0  0  0  0  0  0  0  0  0  0  0
    4.6866   -3.5661    0.9082 H   0  0  0  0  0  0  0  0  0  0  0  0
    3.0788   -3.7450   -0.9566 H   0  0  0  0  0  0  0  0  0  0  0  0
  1 28  1  0  0  0  0
  1 32  1  0  0  0  0
  1 33  1  0  0  0  0
  1 34  1  0  0  0  0
  2 31  1  0  0  0  0
  2 35  1  0  0  0  0
  2 36  1  0  0  0  0
  2 37  1  0  0  0  0
  3 29  1  0  0  0  0
  3 38  1  0  0  0  0
  3 39  1  0  0  0  0
  3 40  1  0  0  0  0
  4 20  1  0  0  0  0
  4 41  1  0  0  0  0
  4 42  1  0  0  0  0
  4 43  1  0  0  0  0
  5 20  1  0  0  0  0
  5 44  1  0  0  0  0
  5 45  1  0  0  0  0
  5 46  1  0  0  0  0
  6 20  1  0  0  0  0
  6 47  1  0  0  0  0
  6 48  1  0  0  0  0
  6 49  1  0  0  0  0
  7  8  1  0  0  0  0
  7 26  1  0  0  0  0
  7 30  1  0  0  0  0
  7 50  1  6  0  0  0
  8 12  2  0  0  0  0
  8 27  1  0  0  0  0
  9 10  1  0  0  0  0
  9 27  2  0  0  0  0
  9 28  1  0  0  0  0
 10 11  2  0  0  0  0
 10 51  1  0  0  0  0
 11 12  1  0  0  0  0
 11 52  1  0  0  0  0
 12 53  1  0  0  0  0
 13 14  2  0  0  0  0
 13 18  1  0  0  0  0
 13 26  1  0  0  0  0
 14 15  1  0  0  0  0
 14 54  1  0  0  0  0
 15 16  2  0  0  0  0
 15 55  1  0  0  0  0
 16 17  1  0  0  0  0
 16 56  1  0  0  0  0
 17 18  2  0  0  0  0
 17 19  1  0  0  0  0
 18 30  1  0  0  0  0
 19 21  2  0  0  0  0
 19 22  1  0  0  0  0
 21 23  1  0  0  0  0
 21 31  1  0  0  0  0
 22 25  2  0  0  0  0
 22 29  1  0  0  0  0
 23 24  2  0  0  0  0
 23 57  1  0  0  0  0
 24 25  1  0  0  0  0
 24 58  1  0  0  0  0
 25 59  1  0  0  0  0
 30 20  1  1  0  0  0
M  END
$$$$
