Title Card Required
 OpenBabel03192317513D

 57 61  0  0  1  0  0  0  0  0999 V2000
    0.6338    1.3770    0.4932 C   0  0  0  0  0  0  0  0  0  0  0  0
    1.8155    2.1231   -0.1508 C   0  0  0  0  0  0  0  0  0  0  0  0
    1.7965    3.4991    0.5394 C   0  0  0  0  0  0  0  0  0  0  0  0
    1.0659    3.2871    1.8936 C   0  0  0  0  0  0  0  0  0  0  0  0
    0.7421    1.7867    1.9652 C   0  0  0  0  0  0  0  0  0  0  0  0
   -0.6991    1.8058   -0.0819 C   0  0  0  0  0  0  0  0  0  0  0  0
    0.6944   -0.1065    0.2774 C   0  0  0  0  0  0  0  0  0  0  0  0
   -0.6852    2.5097   -1.2363 O   0  0  0  0  0  0  0  0  0  0  0  0
   -2.0558    2.7946   -1.5305 C   0  0  0  0  0  0  0  0  0  0  0  0
   -2.8182    1.8111   -0.6209 C   0  0  2  0  0  0  0  0  0  0  0  0
   -1.8224    1.4650    0.3948 N   0  0  0  0  0  0  0  0  0  0  0  0
    0.8197   -1.0113    1.1548 N   0  0  0  0  0  0  0  0  0  0  0  0
    0.8956   -2.2838    0.4353 C   0  0  1  0  0  0  0  0  0  0  0  0
    0.5272   -1.9084   -1.0192 C   0  0  0  0  0  0  0  0  0  0  0  0
    0.5833   -0.4816   -1.0202 O   0  0  0  0  0  0  0  0  0  0  0  0
   -3.2212    0.5327   -1.3771 C   0  0  0  0  0  0  0  0  0  0  0  0
   -3.9162   -0.4992   -0.5241 C   0  0  0  0  0  0  0  0  0  0  0  0
   -5.2929   -0.7086   -0.6518 C   0  0  0  0  0  0  0  0  0  0  0  0
   -5.9538   -1.6506    0.1363 C   0  0  0  0  0  0  0  0  0  0  0  0
   -5.2411   -2.4005    1.0688 C   0  0  0  0  0  0  0  0  0  0  0  0
   -3.8672   -2.1990    1.2082 C   0  0  0  0  0  0  0  0  0  0  0  0
   -3.2094   -1.2576    0.4205 C   0  0  0  0  0  0  0  0  0  0  0  0
    2.2931   -2.9144    0.5933 C   0  0  0  0  0  0  0  0  0  0  0  0
    3.4124   -2.0259    0.1125 C   0  0  0  0  0  0  0  0  0  0  0  0
    3.9086   -1.0093    0.9399 C   0  0  0  0  0  0  0  0  0  0  0  0
    4.9221   -0.1609    0.4991 C   0  0  0  0  0  0  0  0  0  0  0  0
    5.4519   -0.3080   -0.7834 C   0  0  0  0  0  0  0  0  0  0  0  0
    4.9702   -1.3168   -1.6148 C   0  0  0  0  0  0  0  0  0  0  0  0
    3.9615   -2.1699   -1.1666 C   0  0  0  0  0  0  0  0  0  0  0  0
    2.7327    1.5672    0.0950 H   0  0  0  0  0  0  0  0  0  0  0  0
    1.7298    2.1738   -1.2425 H   0  0  0  0  0  0  0  0  0  0  0  0
    2.8125    3.8960    0.6686 H   0  0  0  0  0  0  0  0  0  0  0  0
    1.2474    4.2192   -0.0830 H   0  0  0  0  0  0  0  0  0  0  0  0
    1.6657    3.6140    2.7535 H   0  0  0  0  0  0  0  0  0  0  0  0
    0.1342    3.8714    1.9179 H   0  0  0  0  0  0  0  0  0  0  0  0
   -0.1723    1.5466    2.5222 H   0  0  0  0  0  0  0  0  0  0  0  0
    1.5705    1.2152    2.4082 H   0  0  0  0  0  0  0  0  0  0  0  0
   -2.2276    2.6337   -2.6027 H   0  0  0  0  0  0  0  0  0  0  0  0
   -2.2570    3.8476   -1.2797 H   0  0  0  0  0  0  0  0  0  0  0  0
   -3.7064    2.2661   -0.1595 H   0  0  0  0  0  0  0  0  0  0  0  0
    0.1615   -2.9854    0.8595 H   0  0  0  0  0  0  0  0  0  0  0  0
    1.2342   -2.2897   -1.7683 H   0  0  0  0  0  0  0  0  0  0  0  0
   -0.4939   -2.2190   -1.2884 H   0  0  0  0  0  0  0  0  0  0  0  0
   -3.8766    0.8160   -2.2157 H   0  0  0  0  0  0  0  0  0  0  0  0
   -2.2971    0.1116   -1.8101 H   0  0  0  0  0  0  0  0  0  0  0  0
   -5.8568   -0.1274   -1.3857 H   0  0  0  0  0  0  0  0  0  0  0  0
   -7.0284   -1.7998    0.0181 H   0  0  0  0  0  0  0  0  0  0  0  0
   -5.7536   -3.1395    1.6867 H   0  0  0  0  0  0  0  0  0  0  0  0
   -3.3022   -2.7764    1.9421 H   0  0  0  0  0  0  0  0  0  0  0  0
   -2.1399   -1.0837    0.5565 H   0  0  0  0  0  0  0  0  0  0  0  0
    2.4336   -3.1443    1.6595 H   0  0  0  0  0  0  0  0  0  0  0  0
    2.3057   -3.8695    0.0457 H   0  0  0  0  0  0  0  0  0  0  0  0
    3.4867   -0.8898    1.9401 H   0  0  0  0  0  0  0  0  0  0  0  0
    5.3006    0.6205    1.1607 H   0  0  0  0  0  0  0  0  0  0  0  0
    6.2443    0.3570   -1.1302 H   0  0  0  0  0  0  0  0  0  0  0  0
    5.3862   -1.4465   -2.6153 H   0  0  0  0  0  0  0  0  0  0  0  0
    3.6049   -2.9718   -1.8184 H   0  0  0  0  0  0  0  0  0  0  0  0
  1  2  1  0  0  0  0
  1  5  1  0  0  0  0
  1  6  1  0  0  0  0
  1  7  1  0  0  0  0
  2  3  1  0  0  0  0
  2 30  1  0  0  0  0
  2 31  1  0  0  0  0
  3  4  1  0  0  0  0
  3 32  1  0  0  0  0
  3 33  1  0  0  0  0
  4  5  1  0  0  0  0
  4 34  1  0  0  0  0
  4 35  1  0  0  0  0
  5 36  1  0  0  0  0
  5 37  1  0  0  0  0
  6  8  1  0  0  0  0
  6 11  2  0  0  0  0
  7 12  2  0  0  0  0
  7 15  1  0  0  0  0
  8  9  1  0  0  0  0
  9 10  1  0  0  0  0
  9 38  1  0  0  0  0
  9 39  1  0  0  0  0
 10 11  1  0  0  0  0
 10 16  1  0  0  0  0
 10 40  1  1  0  0  0
 12 13  1  0  0  0  0
 13 14  1  0  0  0  0
 13 23  1  0  0  0  0
 13 41  1  1  0  0  0
 14 15  1  0  0  0  0
 14 42  1  0  0  0  0
 14 43  1  0  0  0  0
 16 17  1  0  0  0  0
 16 44  1  0  0  0  0
 16 45  1  0  0  0  0
 17 18  2  0  0  0  0
 17 22  1  0  0  0  0
 18 19  1  0  0  0  0
 18 46  1  0  0  0  0
 19 20  2  0  0  0  0
 19 47  1  0  0  0  0
 20 21  1  0  0  0  0
 20 48  1  0  0  0  0
 21 22  2  0  0  0  0
 21 49  1  0  0  0  0
 22 50  1  0  0  0  0
 23 24  1  0  0  0  0
 23 51  1  0  0  0  0
 23 52  1  0  0  0  0
 24 25  2  0  0  0  0
 24 29  1  0  0  0  0
 25 26  1  0  0  0  0
 25 53  1  0  0  0  0
 26 27  2  0  0  0  0
 26 54  1  0  0  0  0
 27 28  1  0  0  0  0
 27 55  1  0  0  0  0
 28 29  2  0  0  0  0
 28 56  1  0  0  0  0
 29 57  1  0  0  0  0
M  END
$$$$
