Title Card Required
 OpenBabel03192317513D

 31 32  0  0  1  0  0  0  0  0999 V2000
   -1.9329   -1.7412   -0.0306 O   0  0  0  0  0  0  0  0  0  0  0  0
   -1.4683   -0.5319   -0.3880 C   0  0  0  0  0  0  0  0  0  0  0  0
   -2.2912    0.3423   -0.8007 N   0  0  0  0  0  0  0  0  0  0  0  0
   -3.6237   -0.2556   -0.6927 C   0  0  1  0  0  0  0  0  0  0  0  0
   -3.3280   -1.7338   -0.3426 C   0  0  0  0  0  0  0  0  0  0  0  0
   -0.0052   -0.3062   -0.2618 C   0  0  0  0  0  0  0  0  0  0  0  0
    0.5107    0.9459   -0.6118 C   0  0  0  0  0  0  0  0  0  0  0  0
    1.8800    1.1486   -0.4954 C   0  0  0  0  0  0  0  0  0  0  0  0
    2.6649    0.0957   -0.0343 C   0  0  0  0  0  0  0  0  0  0  0  0
    2.0497   -1.1166    0.2906 C   0  0  0  0  0  0  0  0  0  0  0  0
    0.7443   -1.3154    0.1792 N   0  0  0  0  0  0  0  0  0  0  0  0
    4.1553    0.2280    0.1232 C   0  0  0  0  0  0  0  0  0  0  0  0
    4.5855    1.4331   -0.2514 F   0  0  0  0  0  0  0  0  0  0  0  0
    4.5279    0.0421    1.3904 F   0  0  0  0  0  0  0  0  0  0  0  0
    4.8025   -0.6790   -0.6099 F   0  0  0  0  0  0  0  0  0  0  0  0
   -4.4720    0.4822    0.3582 C   0  0  0  0  0  0  0  0  0  0  0  0
   -3.7815    0.5107    1.7203 C   0  0  0  0  0  0  0  0  0  0  0  0
   -4.8088    1.8921   -0.1187 C   0  0  0  0  0  0  0  0  0  0  0  0
   -4.1351   -0.1731   -1.6645 H   0  0  0  0  0  0  0  0  0  0  0  0
   -3.8888   -2.0980    0.5296 H   0  0  0  0  0  0  0  0  0  0  0  0
   -3.4987   -2.4162   -1.1877 H   0  0  0  0  0  0  0  0  0  0  0  0
   -0.1701    1.7193   -0.9654 H   0  0  0  0  0  0  0  0  0  0  0  0
    2.3364    2.1039   -0.7562 H   0  0  0  0  0  0  0  0  0  0  0  0
    2.6508   -1.9569    0.6535 H   0  0  0  0  0  0  0  0  0  0  0  0
   -5.4106   -0.0933    0.4493 H   0  0  0  0  0  0  0  0  0  0  0  0
   -2.8877    1.1509    1.6807 H   0  0  0  0  0  0  0  0  0  0  0  0
   -4.4551    0.9161    2.4884 H   0  0  0  0  0  0  0  0  0  0  0  0
   -3.4619   -0.4907    2.0471 H   0  0  0  0  0  0  0  0  0  0  0  0
   -5.3734    1.8718   -1.0625 H   0  0  0  0  0  0  0  0  0  0  0  0
   -5.4123    2.4272    0.6284 H   0  0  0  0  0  0  0  0  0  0  0  0
   -3.8828    2.4598   -0.2898 H   0  0  0  0  0  0  0  0  0  0  0  0
  1  2  1  0  0  0  0
  1  5  1  0  0  0  0
  2  3  2  0  0  0  0
  2  6  1  0  0  0  0
  3  4  1  0  0  0  0
  4  5  1  0  0  0  0
  4 16  1  0  0  0  0
  4 19  1  6  0  0  0
  5 20  1  0  0  0  0
  5 21  1  0  0  0  0
  6  7  2  0  0  0  0
  6 11  1  0  0  0  0
  7  8  1  0  0  0  0
  7 22  1  0  0  0  0
  8  9  2  0  0  0  0
  8 23  1  0  0  0  0
  9 10  1  0  0  0  0
  9 12  1  0  0  0  0
 10 11  2  0  0  0  0
 10 24  1  0  0  0  0
 12 13  1  0  0  0  0
 12 14  1  0  0  0  0
 12 15  1  0  0  0  0
 16 17  1  0  0  0  0
 16 18  1  0  0  0  0
 16 25  1  0  0  0  0
 17 26  1  0  0  0  0
 17 27  1  0  0  0  0
 17 28  1  0  0  0  0
 18 29  1  0  0  0  0
 18 30  1  0  0  0  0
 18 31  1  0  0  0  0
M  END
$$$$
