Title Card Required
 OpenBabel03192317553D

 82 88  0  0  1  0  0  0  0  0999 V2000
   -1.4903   -0.6439   -0.6428 C   0  0  0  0  0  0  0  0  0  0  0  0
   -2.9943   -0.6636   -0.5856 C   0  0  0  0  0  0  0  0  0  0  0  0
   -3.6522    0.3745   -1.2475 C   0  0  0  0  0  0  0  0  0  0  0  0
   -5.0373    0.4728   -1.1769 C   0  0  0  0  0  0  0  0  0  0  0  0
   -5.7873   -0.4814   -0.4908 C   0  0  0  0  0  0  0  0  0  0  0  0
   -5.1265   -1.5361    0.1317 C   0  0  0  0  0  0  0  0  0  0  0  0
   -3.7346   -1.6283    0.0952 C   0  0  0  0  0  0  0  0  0  0  0  0
   -0.9120   -0.1028   -1.5644 O   0  0  0  0  0  0  0  0  0  0  0  0
   -0.8443   -1.2061    0.4116 N   0  0  0  0  0  0  0  0  0  0  0  0
   -5.8953   -2.5898    0.8862 C   0  0  0  0  0  0  0  0  0  0  0  0
   -7.2075   -2.4839    0.6921 F   0  0  0  0  0  0  0  0  0  0  0  0
   -5.5226   -3.8156    0.5136 F   0  0  0  0  0  0  0  0  0  0  0  0
   -5.6721   -2.4995    2.1997 F   0  0  0  0  0  0  0  0  0  0  0  0
   -5.7027    1.6621   -1.8188 C   0  0  0  0  0  0  0  0  0  0  0  0
   -5.3817    2.7897   -1.1729 F   0  0  0  0  0  0  0  0  0  0  0  0
   -5.3163    1.8159   -3.0833 F   0  0  0  0  0  0  0  0  0  0  0  0
   -7.0303    1.5582   -1.8047 F   0  0  0  0  0  0  0  0  0  0  0  0
    0.5823   -0.9301    0.5984 C   0  0  2  0  0  0  0  0  0  0  0  0
    1.4720   -1.9467   -0.1217 C   0  0  0  0  0  0  0  0  0  0  0  0
    3.2782   -1.4766   -0.0168 P   0  0  0  0  0  0  0  0  0  0  0  0
    3.9525   -2.8537   -1.0520 C   0  0  0  0  0  0  0  0  0  0  0  0
    3.9667   -2.8358   -2.4524 C   0  0  0  0  0  0  0  0  0  0  0  0
    4.4600   -3.9269   -3.1660 C   0  0  0  0  0  0  0  0  0  0  0  0
    4.9419   -5.0488   -2.4913 C   0  0  0  0  0  0  0  0  0  0  0  0
    4.9352   -5.0746   -1.0977 C   0  0  0  0  0  0  0  0  0  0  0  0
    4.4502   -3.9793   -0.3837 C   0  0  0  0  0  0  0  0  0  0  0  0
    3.3877   -0.0637   -1.1974 C   0  0  0  0  0  0  0  0  0  0  0  0
    4.6502    0.5354   -1.3221 C   0  0  0  0  0  0  0  0  0  0  0  0
    4.8488    1.6053   -2.1903 C   0  0  0  0  0  0  0  0  0  0  0  0
    3.7800    2.1134   -2.9299 C   0  0  0  0  0  0  0  0  0  0  0  0
    2.5187    1.5373   -2.8000 C   0  0  0  0  0  0  0  0  0  0  0  0
    2.3207    0.4498   -1.9458 C   0  0  0  0  0  0  0  0  0  0  0  0
    0.8716   -0.7877    2.0805 C   0  0  0  0  0  0  0  0  0  0  0  0
    1.2577    0.4516    2.6257 C   0  0  0  0  0  0  0  0  0  0  0  0
    1.4856    0.5480    4.0042 C   0  0  0  0  0  0  0  0  0  0  0  0
    1.3320   -0.5574    4.8367 C   0  0  0  0  0  0  0  0  0  0  0  0
    0.9508   -1.7846    4.2961 C   0  0  0  0  0  0  0  0  0  0  0  0
    0.7266   -1.8931    2.9261 C   0  0  0  0  0  0  0  0  0  0  0  0
    3.9151    1.5299    2.0238 C   0  0  0  0  0  0  0  0  0  0  0  0
    5.1514    2.0558    1.7734 C   0  0  0  0  0  0  0  0  0  0  0  0
    5.3044    3.2011    0.9366 C   0  0  0  0  0  0  0  0  0  0  0  0
    4.2117    3.7664    0.3466 C   0  0  0  0  0  0  0  0  0  0  0  0
    2.8965    3.2499    0.5830 C   0  0  0  0  0  0  0  0  0  0  0  0
    1.7756    3.8091   -0.0339 C   0  0  0  0  0  0  0  0  0  0  0  0
    0.4861    3.3415    0.2344 C   0  0  0  0  0  0  0  0  0  0  0  0
   -0.6654    3.9117   -0.3991 C   0  0  0  0  0  0  0  0  0  0  0  0
   -1.9245    3.4768   -0.0980 C   0  0  0  0  0  0  0  0  0  0  0  0
   -2.1097    2.4505    0.8769 C   0  0  0  0  0  0  0  0  0  0  0  0
   -1.0351    1.8670    1.4890 C   0  0  0  0  0  0  0  0  0  0  0  0
    0.3063    2.2698    1.1745 C   0  0  0  0  0  0  0  0  0  0  0  0
    1.4366    1.6491    1.7497 C   0  0  0  0  0  0  0  0  0  0  0  0
    2.7332    2.1265    1.4680 C   0  0  0  0  0  0  0  0  0  0  0  0
   -3.0520    1.1039   -1.7961 H   0  0  0  0  0  0  0  0  0  0  0  0
   -6.8739   -0.4068   -0.4491 H   0  0  0  0  0  0  0  0  0  0  0  0
   -3.2401   -2.4724    0.5822 H   0  0  0  0  0  0  0  0  0  0  0  0
   -1.3827   -1.4503    1.2341 H   0  0  0  0  0  0  0  0  0  0  0  0
    0.7564    0.0387    0.1153 H   0  0  0  0  0  0  0  0  0  0  0  0
    1.3830   -2.9461    0.3334 H   0  0  0  0  0  0  0  0  0  0  0  0
    1.1531   -2.0300   -1.1728 H   0  0  0  0  0  0  0  0  0  0  0  0
    3.5938   -1.9593   -2.9877 H   0  0  0  0  0  0  0  0  0  0  0  0
    4.4677   -3.9007   -4.2569 H   0  0  0  0  0  0  0  0  0  0  0  0
    5.3278   -5.9012   -3.0529 H   0  0  0  0  0  0  0  0  0  0  0  0
    5.3183   -5.9459   -0.5637 H   0  0  0  0  0  0  0  0  0  0  0  0
    4.4626   -3.9928    0.7094 H   0  0  0  0  0  0  0  0  0  0  0  0
    5.4869    0.1570   -0.7282 H   0  0  0  0  0  0  0  0  0  0  0  0
    5.8397    2.0548   -2.2779 H   0  0  0  0  0  0  0  0  0  0  0  0
    3.9323    2.9578   -3.6046 H   0  0  0  0  0  0  0  0  0  0  0  0
    1.6715    1.9279   -3.3668 H   0  0  0  0  0  0  0  0  0  0  0  0
    1.3174    0.0254   -1.8827 H   0  0  0  0  0  0  0  0  0  0  0  0
    1.7873    1.5119    4.4192 H   0  0  0  0  0  0  0  0  0  0  0  0
    1.5104   -0.4607    5.9086 H   0  0  0  0  0  0  0  0  0  0  0  0
    0.8328   -2.6569    4.9404 H   0  0  0  0  0  0  0  0  0  0  0  0
    0.4385   -2.8593    2.5020 H   0  0  0  0  0  0  0  0  0  0  0  0
    3.8169    0.6403    2.6463 H   0  0  0  0  0  0  0  0  0  0  0  0
    6.0353    1.5900    2.2124 H   0  0  0  0  0  0  0  0  0  0  0  0
    6.3007    3.6080    0.7557 H   0  0  0  0  0  0  0  0  0  0  0  0
    4.3159    4.6241   -0.3213 H   0  0  0  0  0  0  0  0  0  0  0  0
    1.9096    4.6330   -0.7392 H   0  0  0  0  0  0  0  0  0  0  0  0
   -0.5118    4.7100   -1.1280 H   0  0  0  0  0  0  0  0  0  0  0  0
   -2.7959    3.9170   -0.5855 H   0  0  0  0  0  0  0  0  0  0  0  0
   -3.1241    2.1413    1.1381 H   0  0  0  0  0  0  0  0  0  0  0  0
   -1.1874    1.0937    2.2438 H   0  0  0  0  0  0  0  0  0  0  0  0
  1  2  1  0  0  0  0
  1  8  2  0  0  0  0
  1  9  1  0  0  0  0
  2  3  2  0  0  0  0
  2  7  1  0  0  0  0
  3  4  1  0  0  0  0
  3 53  1  0  0  0  0
  4  5  2  0  0  0  0
  4 14  1  0  0  0  0
  5  6  1  0  0  0  0
  5 54  1  0  0  0  0
  6  7  2  0  0  0  0
  6 10  1  0  0  0  0
  7 55  1  0  0  0  0
  9 18  1  0  0  0  0
  9 56  1  0  0  0  0
 10 11  1  0  0  0  0
 10 12  1  0  0  0  0
 10 13  1  0  0  0  0
 14 15  1  0  0  0  0
 14 16  1  0  0  0  0
 14 17  1  0  0  0  0
 18 19  1  0  0  0  0
 18 33  1  0  0  0  0
 18 57  1  6  0  0  0
 19 20  1  0  0  0  0
 19 58  1  0  0  0  0
 19 59  1  0  0  0  0
 20 21  1  0  0  0  0
 20 27  1  0  0  0  0
 21 22  2  0  0  0  0
 21 26  1  0  0  0  0
 22 23  1  0  0  0  0
 22 60  1  0  0  0  0
 23 24  2  0  0  0  0
 23 61  1  0  0  0  0
 24 25  1  0  0  0  0
 24 62  1  0  0  0  0
 25 26  2  0  0  0  0
 25 63  1  0  0  0  0
 26 64  1  0  0  0  0
 27 28  2  0  0  0  0
 27 32  1  0  0  0  0
 28 29  1  0  0  0  0
 28 65  1  0  0  0  0
 29 30  2  0  0  0  0
 29 66  1  0  0  0  0
 30 31  1  0  0  0  0
 30 67  1  0  0  0  0
 31 32  2  0  0  0  0
 31 68  1  0  0  0  0
 32 69  1  0  0  0  0
 33 34  2  0  0  0  0
 33 38  1  0  0  0  0
 34 35  1  0  0  0  0
 34 51  1  0  0  0  0
 35 36  2  0  0  0  0
 35 70  1  0  0  0  0
 36 37  1  0  0  0  0
 36 71  1  0  0  0  0
 37 38  2  0  0  0  0
 37 72  1  0  0  0  0
 38 73  1  0  0  0  0
 39 40  2  0  0  0  0
 39 52  1  0  0  0  0
 39 74  1  0  0  0  0
 40 41  1  0  0  0  0
 40 75  1  0  0  0  0
 41 42  2  0  0  0  0
 41 76  1  0  0  0  0
 42 43  1  0  0  0  0
 42 77  1  0  0  0  0
 43 44  2  0  0  0  0
 43 52  1  0  0  0  0
 44 45  1  0  0  0  0
 44 78  1  0  0  0  0
 45 46  2  0  0  0  0
 45 50  1  0  0  0  0
 46 47  1  0  0  0  0
 46 79  1  0  0  0  0
 47 48  2  0  0  0  0
 47 80  1  0  0  0  0
 48 49  1  0  0  0  0
 48 81  1  0  0  0  0
 49 50  2  0  0  0  0
 49 82  1  0  0  0  0
 50 51  1  0  0  0  0
 51 52  2  0  0  0  0
M  END
$$$$
