Title Card Required
 OpenBabel03192317413D

 53 58  0  0  1  0  0  0  0  0999 V2000
    2.3371   -3.1601   -1.6441 C   0  0  0  0  0  0  0  0  0  0  0  0
    2.4442   -2.0061   -0.8688 C   0  0  0  0  0  0  0  0  0  0  0  0
    1.3591   -1.5015   -0.1387 C   0  0  0  0  0  0  0  0  0  0  0  0
    0.1400   -2.2205   -0.2129 C   0  0  0  0  0  0  0  0  0  0  0  0
    0.0390   -3.3778   -0.9948 C   0  0  0  0  0  0  0  0  0  0  0  0
    1.1320   -3.8520   -1.7113 C   0  0  0  0  0  0  0  0  0  0  0  0
   -1.0676   -1.7753    0.5061 C   0  0  0  0  0  0  0  0  0  0  0  0
   -1.1654   -0.7296    1.2182 N   0  0  0  0  0  0  0  0  0  0  0  0
   -2.5605   -0.6273    1.6248 C   0  0  2  0  0  0  0  0  0  0  0  0
   -3.1928   -1.9872    1.2074 C   0  0  2  0  0  0  0  0  0  0  0  0
   -2.1762   -2.5477    0.3655 O   0  0  0  0  0  0  0  0  0  0  0  0
   -3.3083    0.3871    0.7849 C   0  0  0  0  0  0  0  0  0  0  0  0
   -4.3628   -0.2114    0.0921 C   0  0  0  0  0  0  0  0  0  0  0  0
   -4.4717   -1.6828    0.4188 C   0  0  0  0  0  0  0  0  0  0  0  0
   -3.0067    1.7352    0.6137 C   0  0  0  0  0  0  0  0  0  0  0  0
   -3.8036    2.4934   -0.2438 C   0  0  0  0  0  0  0  0  0  0  0  0
   -4.8741    1.9055   -0.9239 C   0  0  0  0  0  0  0  0  0  0  0  0
   -5.1566    0.5482   -0.7657 C   0  0  0  0  0  0  0  0  0  0  0  0
    1.5824   -0.0308    0.9899 P   0  0  0  0  0  0  0  0  0  0  0  0
    0.7216    1.3238    0.0759 C   0  0  0  0  0  0  0  0  0  0  0  0
    0.7538    2.5943    0.6643 C   0  0  0  0  0  0  0  0  0  0  0  0
    0.1554    3.6861    0.0359 C   0  0  0  0  0  0  0  0  0  0  0  0
   -0.4991    3.5162   -1.1842 C   0  0  0  0  0  0  0  0  0  0  0  0
   -0.5520    2.2509   -1.7670 C   0  0  0  0  0  0  0  0  0  0  0  0
    0.0574    1.1619   -1.1440 C   0  0  0  0  0  0  0  0  0  0  0  0
    3.3369    0.4181    0.5871 C   0  0  0  0  0  0  0  0  0  0  0  0
    3.7267    1.2105   -0.5014 C   0  0  0  0  0  0  0  0  0  0  0  0
    5.0740    1.4885   -0.7279 C   0  0  0  0  0  0  0  0  0  0  0  0
    6.0512    0.9778    0.1274 C   0  0  0  0  0  0  0  0  0  0  0  0
    5.6750    0.1943    1.2174 C   0  0  0  0  0  0  0  0  0  0  0  0
    4.3258   -0.0740    1.4485 C   0  0  0  0  0  0  0  0  0  0  0  0
    3.2070   -3.5129   -2.2007 H   0  0  0  0  0  0  0  0  0  0  0  0
    3.4025   -1.4888   -0.8390 H   0  0  0  0  0  0  0  0  0  0  0  0
   -0.9166   -3.8998   -1.0288 H   0  0  0  0  0  0  0  0  0  0  0  0
    1.0421   -4.7546   -2.3169 H   0  0  0  0  0  0  0  0  0  0  0  0
   -2.6334   -0.4106    2.7007 H   0  0  0  0  0  0  0  0  0  0  0  0
   -3.3560   -2.6848    2.0408 H   0  0  0  0  0  0  0  0  0  0  0  0
   -5.3614   -1.8897    1.0339 H   0  0  0  0  0  0  0  0  0  0  0  0
   -4.5334   -2.3200   -0.4751 H   0  0  0  0  0  0  0  0  0  0  0  0
   -2.1440    2.1797    1.1162 H   0  0  0  0  0  0  0  0  0  0  0  0
   -3.5787    3.5506   -0.3946 H   0  0  0  0  0  0  0  0  0  0  0  0
   -5.4878    2.5114   -1.5927 H   0  0  0  0  0  0  0  0  0  0  0  0
   -5.9830    0.0877   -1.3110 H   0  0  0  0  0  0  0  0  0  0  0  0
    1.2627    2.7322    1.6223 H   0  0  0  0  0  0  0  0  0  0  0  0
    0.2006    4.6717    0.5028 H   0  0  0  0  0  0  0  0  0  0  0  0
   -0.9717    4.3675   -1.6775 H   0  0  0  0  0  0  0  0  0  0  0  0
   -1.0738    2.1069   -2.7147 H   0  0  0  0  0  0  0  0  0  0  0  0
    0.0138    0.1775   -1.6150 H   0  0  0  0  0  0  0  0  0  0  0  0
    2.9704    1.6093   -1.1810 H   0  0  0  0  0  0  0  0  0  0  0  0
    5.3629    2.1063   -1.5801 H   0  0  0  0  0  0  0  0  0  0  0  0
    7.1052    1.1956   -0.0531 H   0  0  0  0  0  0  0  0  0  0  0  0
    6.4323   -0.2021    1.8960 H   0  0  0  0  0  0  0  0  0  0  0  0
    4.0315   -0.6778    2.3112 H   0  0  0  0  0  0  0  0  0  0  0  0
  1  2  2  0  0  0  0
  1  6  1  0  0  0  0
  1 32  1  0  0  0  0
  2  3  1  0  0  0  0
  2 33  1  0  0  0  0
  3  4  2  0  0  0  0
  3 19  1  0  0  0  0
  4  5  1  0  0  0  0
  4  7  1  0  0  0  0
  5  6  2  0  0  0  0
  5 34  1  0  0  0  0
  6 35  1  0  0  0  0
  7  8  2  0  0  0  0
  7 11  1  0  0  0  0
  8  9  1  0  0  0  0
  9 10  1  0  0  0  0
  9 12  1  0  0  0  0
  9 36  1  1  0  0  0
 10 11  1  0  0  0  0
 10 14  1  0  0  0  0
 10 37  1  1  0  0  0
 12 13  2  0  0  0  0
 12 15  1  0  0  0  0
 13 14  1  0  0  0  0
 13 18  1  0  0  0  0
 14 38  1  0  0  0  0
 14 39  1  0  0  0  0
 15 16  2  0  0  0  0
 15 40  1  0  0  0  0
 16 17  1  0  0  0  0
 16 41  1  0  0  0  0
 17 18  2  0  0  0  0
 17 42  1  0  0  0  0
 18 43  1  0  0  0  0
 19 20  1  0  0  0  0
 19 26  1  0  0  0  0
 20 21  2  0  0  0  0
 20 25  1  0  0  0  0
 21 22  1  0  0  0  0
 21 44  1  0  0  0  0
 22 23  2  0  0  0  0
 22 45  1  0  0  0  0
 23 24  1  0  0  0  0
 23 46  1  0  0  0  0
 24 25  2  0  0  0  0
 24 47  1  0  0  0  0
 25 48  1  0  0  0  0
 26 27  2  0  0  0  0
 26 31  1  0  0  0  0
 27 28  1  0  0  0  0
 27 49  1  0  0  0  0
 28 29  2  0  0  0  0
 28 50  1  0  0  0  0
 29 30  1  0  0  0  0
 29 51  1  0  0  0  0
 30 31  2  0  0  0  0
 30 52  1  0  0  0  0
 31 53  1  0  0  0  0
M  END
$$$$
