Title Card Required
 OpenBabel03192317483D

 52 54  0  0  0  0  0  0  0  0999 V2000
    1.9616    3.2676   -0.8733 C   0  0  0  0  0  0  0  0  0  0  0  0
    0.5657   -3.3785   -0.5123 C   0  0  0  0  0  0  0  0  0  0  0  0
   -2.4803   -0.2493    3.3454 C   0  0  0  0  0  0  0  0  0  0  0  0
   -0.5624    1.0379    2.3714 C   0  0  0  0  0  0  0  0  0  0  0  0
   -2.8887    1.4792    1.5689 C   0  0  0  0  0  0  0  0  0  0  0  0
   -3.3679   -1.3053    0.2057 C   0  0  0  0  0  0  0  0  0  0  0  0
   -2.5368    0.1083   -1.4013 C   0  0  0  0  0  0  0  0  0  0  0  0
   -2.5812    0.8013   -2.6089 C   0  0  0  0  0  0  0  0  0  0  0  0
   -1.3768    1.2398   -3.1546 C   0  0  0  0  0  0  0  0  0  0  0  0
   -0.1616    0.9933   -2.5142 C   0  0  0  0  0  0  0  0  0  0  0  0
   -0.1236    0.3165   -1.2891 C   0  0  0  0  0  0  0  0  0  0  0  0
   -1.3290   -0.1193   -0.7271 C   0  0  0  0  0  0  0  0  0  0  0  0
    1.1767    0.0433   -0.6117 C   0  0  0  0  0  0  0  0  0  0  0  0
   -1.9258    0.4065    2.0760 C   0  0  0  0  0  0  0  0  0  0  0  0
    1.9034    1.0760   -0.0044 C   0  0  0  0  0  0  0  0  0  0  0  0
    1.6835   -1.2664   -0.5709 C   0  0  0  0  0  0  0  0  0  0  0  0
    3.1006    0.8207    0.6795 C   0  0  0  0  0  0  0  0  0  0  0  0
    3.5789   -0.4898    0.6775 C   0  0  0  0  0  0  0  0  0  0  0  0
    2.9107   -1.5439    0.0507 C   0  0  0  0  0  0  0  0  0  0  0  0
   -3.6629   -0.3703   -0.8249 O   0  0  0  0  0  0  0  0  0  0  0  0
    0.9721   -2.2264   -1.2218 O   0  0  0  0  0  0  0  0  0  0  0  0
    1.3660    2.3370    0.0022 O   0  0  0  0  0  0  0  0  0  0  0  0
   -1.6258   -1.0092    0.8495 P   0  0  1  0  0  0  0  0  0  0  0  0
    3.8265    1.9192    1.4106 C   0  0  0  0  0  0  0  0  0  0  0  0
    3.5190   -2.9208   -0.0061 C   0  0  0  0  0  0  0  0  0  0  0  0
    1.4434    4.2230   -0.7280 H   0  0  0  0  0  0  0  0  0  0  0  0
    1.8485    2.9536   -1.9228 H   0  0  0  0  0  0  0  0  0  0  0  0
    3.0334    3.4029   -0.6566 H   0  0  0  0  0  0  0  0  0  0  0  0
    1.1986   -4.2438   -0.7630 H   0  0  0  0  0  0  0  0  0  0  0  0
    0.5826   -3.2059    0.5740 H   0  0  0  0  0  0  0  0  0  0  0  0
   -0.4695   -3.6025   -0.8077 H   0  0  0  0  0  0  0  0  0  0  0  0
   -1.7870   -1.0073    3.7404 H   0  0  0  0  0  0  0  0  0  0  0  0
   -2.6293    0.5162    4.1240 H   0  0  0  0  0  0  0  0  0  0  0  0
   -3.4538   -0.7336    3.1689 H   0  0  0  0  0  0  0  0  0  0  0  0
   -0.1871    1.5991    1.5037 H   0  0  0  0  0  0  0  0  0  0  0  0
   -0.6591    1.7461    3.2112 H   0  0  0  0  0  0  0  0  0  0  0  0
    0.1889    0.2804    2.6483 H   0  0  0  0  0  0  0  0  0  0  0  0
   -2.5051    1.9585    0.6559 H   0  0  0  0  0  0  0  0  0  0  0  0
   -3.8871    1.0732    1.3497 H   0  0  0  0  0  0  0  0  0  0  0  0
   -3.0032    2.2626    2.3369 H   0  0  0  0  0  0  0  0  0  0  0  0
   -3.4288   -2.3247   -0.2118 H   0  0  0  0  0  0  0  0  0  0  0  0
   -4.1262   -1.2078    0.9949 H   0  0  0  0  0  0  0  0  0  0  0  0
   -3.5382    0.9664   -3.1031 H   0  0  0  0  0  0  0  0  0  0  0  0
   -1.3837    1.7681   -4.1095 H   0  0  0  0  0  0  0  0  0  0  0  0
    0.7740    1.3024   -2.9816 H   0  0  0  0  0  0  0  0  0  0  0  0
    4.5247   -0.7012    1.1844 H   0  0  0  0  0  0  0  0  0  0  0  0
    4.3787    1.5103    2.2671 H   0  0  0  0  0  0  0  0  0  0  0  0
    4.5568    2.4321    0.7646 H   0  0  0  0  0  0  0  0  0  0  0  0
    3.1161    2.6719    1.7789 H   0  0  0  0  0  0  0  0  0  0  0  0
    3.0662   -3.6103    0.7222 H   0  0  0  0  0  0  0  0  0  0  0  0
    3.3838   -3.3595   -1.0052 H   0  0  0  0  0  0  0  0  0  0  0  0
    4.5945   -2.8715    0.2070 H   0  0  0  0  0  0  0  0  0  0  0  0
  1 22  1  0  0  0  0
  1 26  1  0  0  0  0
  1 27  1  0  0  0  0
  1 28  1  0  0  0  0
  2 21  1  0  0  0  0
  2 29  1  0  0  0  0
  2 30  1  0  0  0  0
  2 31  1  0  0  0  0
  3 14  1  0  0  0  0
  3 32  1  0  0  0  0
  3 33  1  0  0  0  0
  3 34  1  0  0  0  0
  4 14  1  0  0  0  0
  4 35  1  0  0  0  0
  4 36  1  0  0  0  0
  4 37  1  0  0  0  0
  5 14  1  0  0  0  0
  5 38  1  0  0  0  0
  5 39  1  0  0  0  0
  5 40  1  0  0  0  0
  6 20  1  0  0  0  0
  6 23  1  0  0  0  0
  6 41  1  0  0  0  0
  6 42  1  0  0  0  0
  7  8  2  0  0  0  0
  7 12  1  0  0  0  0
  7 20  1  0  0  0  0
  8  9  1  0  0  0  0
  8 43  1  0  0  0  0
  9 10  2  0  0  0  0
  9 44  1  0  0  0  0
 10 11  1  0  0  0  0
 10 45  1  0  0  0  0
 11 12  2  0  0  0  0
 11 13  1  0  0  0  0
 12 23  1  0  0  0  0
 13 15  2  0  0  0  0
 13 16  1  0  0  0  0
 15 17  1  0  0  0  0
 15 22  1  0  0  0  0
 16 19  2  0  0  0  0
 16 21  1  0  0  0  0
 17 18  2  0  0  0  0
 17 24  1  0  0  0  0
 18 19  1  0  0  0  0
 18 46  1  0  0  0  0
 19 25  1  0  0  0  0
 23 14  1  1  0  0  0
 24 47  1  0  0  0  0
 24 48  1  0  0  0  0
 24 49  1  0  0  0  0
 25 50  1  0  0  0  0
 25 51  1  0  0  0  0
 25 52  1  0  0  0  0
M  END
$$$$
