Title Card Required
 OpenBabel03192317443D

 36 40  0  0  1  0  0  0  0  0999 V2000
   -0.6285   -1.3614    0.7725 O   0  0  0  0  0  0  0  0  0  0  0  0
   -0.2485   -0.0765    0.9003 C   0  0  0  0  0  0  0  0  0  0  0  0
   -1.0986    0.7752    1.3095 N   0  0  0  0  0  0  0  0  0  0  0  0
   -2.3559    0.0478    1.4657 C   0  0  2  0  0  0  0  0  0  0  0  0
   -1.9786   -1.4484    1.2435 C   0  0  1  0  0  0  0  0  0  0  0  0
   -2.9153   -2.0144    0.1679 C   0  0  0  0  0  0  0  0  0  0  0  0
   -3.6144   -0.8001   -0.3974 C   0  0  0  0  0  0  0  0  0  0  0  0
   -4.4701   -0.7256   -1.4958 C   0  0  0  0  0  0  0  0  0  0  0  0
   -5.0238    0.5066   -1.8417 C   0  0  0  0  0  0  0  0  0  0  0  0
   -4.7253    1.6549   -1.1015 C   0  0  0  0  0  0  0  0  0  0  0  0
   -3.8701    1.5820   -0.0029 C   0  0  0  0  0  0  0  0  0  0  0  0
   -3.3279    0.3474    0.3445 C   0  0  0  0  0  0  0  0  0  0  0  0
    1.9341   -0.7270    0.1555 N   0  0  0  0  0  0  0  0  0  0  0  0
    1.1578    0.2493    0.5492 C   0  0  0  0  0  0  0  0  0  0  0  0
    1.5754    1.6069    0.6632 C   0  0  0  0  0  0  0  0  0  0  0  0
    2.8689    1.9158    0.3425 C   0  0  0  0  0  0  0  0  0  0  0  0
    3.7466    0.8855   -0.0908 C   0  0  0  0  0  0  0  0  0  0  0  0
    5.1021    1.1146   -0.4439 C   0  0  0  0  0  0  0  0  0  0  0  0
    5.8983    0.0730   -0.8552 C   0  0  0  0  0  0  0  0  0  0  0  0
    5.3756   -1.2434   -0.9315 C   0  0  0  0  0  0  0  0  0  0  0  0
    4.0684   -1.4944   -0.5956 C   0  0  0  0  0  0  0  0  0  0  0  0
    3.2207   -0.4366   -0.1669 C   0  0  0  0  0  0  0  0  0  0  0  0
   -2.7937    0.2555    2.4537 H   0  0  0  0  0  0  0  0  0  0  0  0
   -1.9704   -2.0525    2.1612 H   0  0  0  0  0  0  0  0  0  0  0  0
   -2.3367   -2.5671   -0.5859 H   0  0  0  0  0  0  0  0  0  0  0  0
   -3.6383   -2.7172    0.6099 H   0  0  0  0  0  0  0  0  0  0  0  0
   -4.7015   -1.6179   -2.0811 H   0  0  0  0  0  0  0  0  0  0  0  0
   -5.6929    0.5761   -2.7009 H   0  0  0  0  0  0  0  0  0  0  0  0
   -5.1605    2.6129   -1.3903 H   0  0  0  0  0  0  0  0  0  0  0  0
   -3.6172    2.4745    0.5723 H   0  0  0  0  0  0  0  0  0  0  0  0
    0.8536    2.3493    1.0013 H   0  0  0  0  0  0  0  0  0  0  0  0
    3.2386    2.9411    0.4135 H   0  0  0  0  0  0  0  0  0  0  0  0
    5.4985    2.1302   -0.3820 H   0  0  0  0  0  0  0  0  0  0  0  0
    6.9397    0.2553   -1.1243 H   0  0  0  0  0  0  0  0  0  0  0  0
    6.0214   -2.0593   -1.2593 H   0  0  0  0  0  0  0  0  0  0  0  0
    3.6363   -2.4943   -0.6442 H   0  0  0  0  0  0  0  0  0  0  0  0
  1  2  1  0  0  0  0
  1  5  1  0  0  0  0
  2  3  2  0  0  0  0
  2 14  1  0  0  0  0
  3  4  1  0  0  0  0
  4  5  1  0  0  0  0
  4 12  1  0  0  0  0
  4 23  1  1  0  0  0
  5  6  1  0  0  0  0
  5 24  1  1  0  0  0
  6  7  1  0  0  0  0
  6 25  1  0  0  0  0
  6 26  1  0  0  0  0
  7  8  2  0  0  0  0
  7 12  1  0  0  0  0
  8  9  1  0  0  0  0
  8 27  1  0  0  0  0
  9 10  2  0  0  0  0
  9 28  1  0  0  0  0
 10 11  1  0  0  0  0
 10 29  1  0  0  0  0
 11 12  2  0  0  0  0
 11 30  1  0  0  0  0
 13 14  2  0  0  0  0
 13 22  1  0  0  0  0
 14 15  1  0  0  0  0
 15 16  2  0  0  0  0
 15 31  1  0  0  0  0
 16 17  1  0  0  0  0
 16 32  1  0  0  0  0
 17 18  2  0  0  0  0
 17 22  1  0  0  0  0
 18 19  1  0  0  0  0
 18 33  1  0  0  0  0
 19 20  2  0  0  0  0
 19 34  1  0  0  0  0
 20 21  1  0  0  0  0
 20 35  1  0  0  0  0
 21 22  2  0  0  0  0
 21 36  1  0  0  0  0
M  END
$$$$
