Title Card Required
 OpenBabel03192317503D

 44 45  0  0  1  0  0  0  0  0999 V2000
   -0.3397    0.5376    0.4613 C   0  0  1  0  0  0  0  0  0  0  0  0
    0.3923    1.1055   -0.7814 C   0  0  1  0  0  0  0  0  0  0  0  0
    0.1951    1.1337    1.6706 N   0  0  0  0  0  0  0  0  0  0  0  0
    0.4965    2.5685   -0.6986 N   0  0  0  0  0  0  0  0  0  0  0  0
    1.7168    0.4136   -1.0718 C   0  0  0  0  0  0  0  0  0  0  0  0
    2.5464   -0.0691   -0.0532 C   0  0  0  0  0  0  0  0  0  0  0  0
    3.7689   -0.6544   -0.3705 C   0  0  0  0  0  0  0  0  0  0  0  0
    4.1914   -0.7683   -1.6960 C   0  0  0  0  0  0  0  0  0  0  0  0
    3.3731   -0.2852   -2.7114 C   0  0  0  0  0  0  0  0  0  0  0  0
    2.1466    0.3002   -2.3969 C   0  0  0  0  0  0  0  0  0  0  0  0
    4.6806   -1.1557    0.7172 C   0  0  0  0  0  0  0  0  0  0  0  0
    4.0830   -1.1756    1.9081 F   0  0  0  0  0  0  0  0  0  0  0  0
    5.1090   -2.3950    0.4601 F   0  0  0  0  0  0  0  0  0  0  0  0
    5.7701   -0.3897    0.8315 F   0  0  0  0  0  0  0  0  0  0  0  0
   -1.8486    0.6904    0.3047 C   0  0  0  0  0  0  0  0  0  0  0  0
   -2.6533   -0.4287    0.0838 C   0  0  0  0  0  0  0  0  0  0  0  0
   -4.0307   -0.2885   -0.0796 C   0  0  0  0  0  0  0  0  0  0  0  0
   -4.6279    0.9697   -0.0284 C   0  0  0  0  0  0  0  0  0  0  0  0
   -3.8308    2.0900    0.1958 C   0  0  0  0  0  0  0  0  0  0  0  0
   -2.4542    1.9520    0.3635 C   0  0  0  0  0  0  0  0  0  0  0  0
   -4.8979   -1.5047   -0.2610 C   0  0  0  0  0  0  0  0  0  0  0  0
   -4.2011   -2.5519   -0.7060 F   0  0  0  0  0  0  0  0  0  0  0  0
   -5.4721   -1.8733    0.8878 F   0  0  0  0  0  0  0  0  0  0  0  0
   -5.8860   -1.2775   -1.1306 F   0  0  0  0  0  0  0  0  0  0  0  0
    1.7653    3.1267   -0.2527 C   0  0  0  0  0  0  0  0  0  0  0  0
   -0.3569    0.5958    2.8989 C   0  0  0  0  0  0  0  0  0  0  0  0
   -0.1278   -0.5450    0.5015 H   0  0  0  0  0  0  0  0  0  0  0  0
   -0.2610    0.8879   -1.6395 H   0  0  0  0  0  0  0  0  0  0  0  0
    0.0664    2.1430    1.6188 H   0  0  0  0  0  0  0  0  0  0  0  0
    0.2274    2.9847   -1.5840 H   0  0  0  0  0  0  0  0  0  0  0  0
    2.2323    0.0287    0.9876 H   0  0  0  0  0  0  0  0  0  0  0  0
    5.1495   -1.2381   -1.9246 H   0  0  0  0  0  0  0  0  0  0  0  0
    3.6861   -0.3719   -3.7527 H   0  0  0  0  0  0  0  0  0  0  0  0
    1.5050    0.6726   -3.2000 H   0  0  0  0  0  0  0  0  0  0  0  0
   -2.2048   -1.4234    0.0339 H   0  0  0  0  0  0  0  0  0  0  0  0
   -5.7059    1.0674   -0.1649 H   0  0  0  0  0  0  0  0  0  0  0  0
   -4.2869    3.0801    0.2383 H   0  0  0  0  0  0  0  0  0  0  0  0
   -1.8299    2.8333    0.5222 H   0  0  0  0  0  0  0  0  0  0  0  0
    2.6135    2.9262   -0.9326 H   0  0  0  0  0  0  0  0  0  0  0  0
    1.6566    4.2152   -0.1450 H   0  0  0  0  0  0  0  0  0  0  0  0
    2.0291    2.7136    0.7299 H   0  0  0  0  0  0  0  0  0  0  0  0
    0.0973    1.1036    3.7601 H   0  0  0  0  0  0  0  0  0  0  0  0
   -1.4573    0.6864    2.9787 H   0  0  0  0  0  0  0  0  0  0  0  0
   -0.1047   -0.4731    2.9757 H   0  0  0  0  0  0  0  0  0  0  0  0
  1  2  1  0  0  0  0
  1  3  1  0  0  0  0
  1 15  1  0  0  0  0
  1 27  1  1  0  0  0
  2  4  1  0  0  0  0
  2  5  1  0  0  0  0
  2 28  1  6  0  0  0
  3 26  1  0  0  0  0
  3 29  1  0  0  0  0
  4 25  1  0  0  0  0
  4 30  1  0  0  0  0
  5  6  2  0  0  0  0
  5 10  1  0  0  0  0
  6  7  1  0  0  0  0
  6 31  1  0  0  0  0
  7  8  2  0  0  0  0
  7 11  1  0  0  0  0
  8  9  1  0  0  0  0
  8 32  1  0  0  0  0
  9 10  2  0  0  0  0
  9 33  1  0  0  0  0
 10 34  1  0  0  0  0
 11 12  1  0  0  0  0
 11 13  1  0  0  0  0
 11 14  1  0  0  0  0
 15 16  2  0  0  0  0
 15 20  1  0  0  0  0
 16 17  1  0  0  0  0
 16 35  1  0  0  0  0
 17 18  2  0  0  0  0
 17 21  1  0  0  0  0
 18 19  1  0  0  0  0
 18 36  1  0  0  0  0
 19 20  2  0  0  0  0
 19 37  1  0  0  0  0
 20 38  1  0  0  0  0
 21 22  1  0  0  0  0
 21 23  1  0  0  0  0
 21 24  1  0  0  0  0
 25 39  1  0  0  0  0
 25 40  1  0  0  0  0
 25 41  1  0  0  0  0
 26 42  1  0  0  0  0
 26 43  1  0  0  0  0
 26 44  1  0  0  0  0
M  END
$$$$
