Title Card Required
 OpenBabel03192317553D

 45 49  0  0  1  0  0  0  0  0999 V2000
   -0.0233    0.6969    0.4341 O   0  0  0  0  0  0  0  0  0  0  0  0
    0.4794   -0.3519   -0.2449 C   0  0  0  0  0  0  0  0  0  0  0  0
   -0.3295   -1.1415   -0.8253 N   0  0  0  0  0  0  0  0  0  0  0  0
   -1.6644   -0.5894   -0.6234 C   0  0  2  0  0  0  0  0  0  0  0  0
   -1.4403    0.5099    0.4662 C   0  0  2  0  0  0  0  0  0  0  0  0
    2.6697    0.4076    0.3535 N   0  0  0  0  0  0  0  0  0  0  0  0
    1.9579   -0.4882   -0.2808 C   0  0  0  0  0  0  0  0  0  0  0  0
    2.5099   -1.5819   -1.0080 C   0  0  0  0  0  0  0  0  0  0  0  0
    3.8715   -1.7115   -1.0456 C   0  0  0  0  0  0  0  0  0  0  0  0
    4.6832   -0.7611   -0.3699 C   0  0  0  0  0  0  0  0  0  0  0  0
    6.1012   -0.8181   -0.3576 C   0  0  0  0  0  0  0  0  0  0  0  0
    6.8285    0.1340    0.3150 C   0  0  0  0  0  0  0  0  0  0  0  0
    6.1715    1.1851    1.0049 C   0  0  0  0  0  0  0  0  0  0  0  0
    4.8009    1.2655    1.0102 C   0  0  0  0  0  0  0  0  0  0  0  0
    4.0223    0.2944    0.3232 C   0  0  0  0  0  0  0  0  0  0  0  0
   -2.1787    1.7945    0.2181 C   0  0  0  0  0  0  0  0  0  0  0  0
   -1.6172    2.8012   -0.5717 C   0  0  0  0  0  0  0  0  0  0  0  0
   -2.3430    3.9576   -0.8500 C   0  0  0  0  0  0  0  0  0  0  0  0
   -3.6344    4.1155   -0.3464 C   0  0  0  0  0  0  0  0  0  0  0  0
   -4.1952    3.1151    0.4464 C   0  0  0  0  0  0  0  0  0  0  0  0
   -3.4678    1.9606    0.7323 C   0  0  0  0  0  0  0  0  0  0  0  0
   -2.7132   -1.5991   -0.2302 C   0  0  0  0  0  0  0  0  0  0  0  0
   -2.3661   -2.7690    0.4502 C   0  0  0  0  0  0  0  0  0  0  0  0
   -3.3547   -3.6593    0.8661 C   0  0  0  0  0  0  0  0  0  0  0  0
   -4.6984   -3.3871    0.6092 C   0  0  0  0  0  0  0  0  0  0  0  0
   -5.0500   -2.2234   -0.0740 C   0  0  0  0  0  0  0  0  0  0  0  0
   -4.0609   -1.3365   -0.4957 C   0  0  0  0  0  0  0  0  0  0  0  0
   -1.9813   -0.1089   -1.5662 H   0  0  0  0  0  0  0  0  0  0  0  0
   -1.7062    0.1051    1.4575 H   0  0  0  0  0  0  0  0  0  0  0  0
    1.8327   -2.2737   -1.5075 H   0  0  0  0  0  0  0  0  0  0  0  0
    4.3459   -2.5327   -1.5874 H   0  0  0  0  0  0  0  0  0  0  0  0
    6.6015   -1.6297   -0.8901 H   0  0  0  0  0  0  0  0  0  0  0  0
    7.9183    0.0851    0.3210 H   0  0  0  0  0  0  0  0  0  0  0  0
    6.7638    1.9327    1.5345 H   0  0  0  0  0  0  0  0  0  0  0  0
    4.2658    2.0599    1.5310 H   0  0  0  0  0  0  0  0  0  0  0  0
   -0.6006    2.6774   -0.9484 H   0  0  0  0  0  0  0  0  0  0  0  0
   -1.8955    4.7431   -1.4611 H   0  0  0  0  0  0  0  0  0  0  0  0
   -4.2003    5.0221   -0.5659 H   0  0  0  0  0  0  0  0  0  0  0  0
   -5.2003    3.2372    0.8531 H   0  0  0  0  0  0  0  0  0  0  0  0
   -3.9020    1.1806    1.3628 H   0  0  0  0  0  0  0  0  0  0  0  0
   -1.3114   -2.9801    0.6363 H   0  0  0  0  0  0  0  0  0  0  0  0
   -3.0745   -4.5732    1.3925 H   0  0  0  0  0  0  0  0  0  0  0  0
   -5.4708   -4.0851    0.9359 H   0  0  0  0  0  0  0  0  0  0  0  0
   -6.0986   -2.0096   -0.2875 H   0  0  0  0  0  0  0  0  0  0  0  0
   -4.3342   -0.4300   -1.0419 H   0  0  0  0  0  0  0  0  0  0  0  0
  1  2  1  0  0  0  0
  1  5  1  0  0  0  0
  2  3  2  0  0  0  0
  2  7  1  0  0  0  0
  3  4  1  0  0  0  0
  4  5  1  0  0  0  0
  4 22  1  0  0  0  0
  4 28  1  6  0  0  0
  5 16  1  0  0  0  0
  5 29  1  1  0  0  0
  6  7  2  0  0  0  0
  6 15  1  0  0  0  0
  7  8  1  0  0  0  0
  8  9  2  0  0  0  0
  8 30  1  0  0  0  0
  9 10  1  0  0  0  0
  9 31  1  0  0  0  0
 10 11  2  0  0  0  0
 10 15  1  0  0  0  0
 11 12  1  0  0  0  0
 11 32  1  0  0  0  0
 12 13  2  0  0  0  0
 12 33  1  0  0  0  0
 13 14  1  0  0  0  0
 13 34  1  0  0  0  0
 14 15  2  0  0  0  0
 14 35  1  0  0  0  0
 16 17  2  0  0  0  0
 16 21  1  0  0  0  0
 17 18  1  0  0  0  0
 17 36  1  0  0  0  0
 18 19  2  0  0  0  0
 18 37  1  0  0  0  0
 19 20  1  0  0  0  0
 19 38  1  0  0  0  0
 20 21  2  0  0  0  0
 20 39  1  0  0  0  0
 21 40  1  0  0  0  0
 22 23  2  0  0  0  0
 22 27  1  0  0  0  0
 23 24  1  0  0  0  0
 23 41  1  0  0  0  0
 24 25  2  0  0  0  0
 24 42  1  0  0  0  0
 25 26  1  0  0  0  0
 25 43  1  0  0  0  0
 26 27  2  0  0  0  0
 26 44  1  0  0  0  0
 27 45  1  0  0  0  0
M  END
$$$$
