Title Card Required
 OpenBabel03192317453D

 60 61  0  0  0  0  0  0  0  0999 V2000
    2.3126    1.9796   -1.0843 C   0  0  0  0  0  0  0  0  0  0  0  0
    1.0009    1.4849   -1.1506 C   0  0  0  0  0  0  0  0  0  0  0  0
    0.6927    0.2823   -0.4862 C   0  0  0  0  0  0  0  0  0  0  0  0
    1.6888   -0.4142    0.2276 C   0  0  0  0  0  0  0  0  0  0  0  0
    3.0137    0.0567    0.2909 C   0  0  0  0  0  0  0  0  0  0  0  0
    3.2753    1.2565   -0.3763 C   0  0  0  0  0  0  0  0  0  0  0  0
   -0.6927   -0.2822   -0.4862 C   0  0  0  0  0  0  0  0  0  0  0  0
   -1.0008   -1.4847   -1.1507 C   0  0  0  0  0  0  0  0  0  0  0  0
   -2.3125   -1.9794   -1.0845 C   0  0  0  0  0  0  0  0  0  0  0  0
   -3.2752   -1.2564   -0.3764 C   0  0  0  0  0  0  0  0  0  0  0  0
   -3.0137   -0.0567    0.2908 C   0  0  0  0  0  0  0  0  0  0  0  0
   -1.6888    0.4142    0.2276 C   0  0  0  0  0  0  0  0  0  0  0  0
    2.6831    3.2653   -1.7768 C   0  0  0  0  0  0  0  0  0  0  0  0
   -0.0497    2.2449   -1.9207 C   0  0  0  0  0  0  0  0  0  0  0  0
    0.0498   -2.2447   -1.9207 C   0  0  0  0  0  0  0  0  0  0  0  0
   -2.6830   -3.2652   -1.7771 C   0  0  0  0  0  0  0  0  0  0  0  0
    4.1027   -0.7082    1.0544 C   0  0  0  0  0  0  0  0  0  0  0  0
    4.2746   -2.1128    0.4489 C   0  0  0  0  0  0  0  0  0  0  0  0
    5.4560    0.0061    0.9675 C   0  0  0  0  0  0  0  0  0  0  0  0
    3.7258   -0.8139    2.5428 C   0  0  0  0  0  0  0  0  0  0  0  0
   -4.1027    0.7081    1.0544 C   0  0  0  0  0  0  0  0  0  0  0  0
   -3.7259    0.8138    2.5428 C   0  0  0  0  0  0  0  0  0  0  0  0
   -4.2748    2.1127    0.4489 C   0  0  0  0  0  0  0  0  0  0  0  0
   -5.4560   -0.0064    0.9676 C   0  0  0  0  0  0  0  0  0  0  0  0
   -1.3701    1.5707    0.8610 O   0  0  0  0  0  0  0  0  0  0  0  0
    1.3700   -1.5706    0.8610 O   0  0  0  0  0  0  0  0  0  0  0  0
    4.2854    1.6648   -0.3492 H   0  0  0  0  0  0  0  0  0  0  0  0
   -4.2854   -1.6647   -0.3494 H   0  0  0  0  0  0  0  0  0  0  0  0
    2.5773    3.1807   -2.8700 H   0  0  0  0  0  0  0  0  0  0  0  0
    2.0387    4.0987   -1.4581 H   0  0  0  0  0  0  0  0  0  0  0  0
    3.7239    3.5400   -1.5618 H   0  0  0  0  0  0  0  0  0  0  0  0
   -0.9588    1.6498   -2.0693 H   0  0  0  0  0  0  0  0  0  0  0  0
   -0.3364    3.1702   -1.3949 H   0  0  0  0  0  0  0  0  0  0  0  0
    0.3321    2.5435   -2.9074 H   0  0  0  0  0  0  0  0  0  0  0  0
    0.9592   -1.6499   -2.0687 H   0  0  0  0  0  0  0  0  0  0  0  0
    0.3359   -3.1704   -1.3952 H   0  0  0  0  0  0  0  0  0  0  0  0
   -0.3317   -2.5428   -2.9077 H   0  0  0  0  0  0  0  0  0  0  0  0
   -2.5766   -3.1807   -2.8703 H   0  0  0  0  0  0  0  0  0  0  0  0
   -2.0389   -4.0987   -1.4580 H   0  0  0  0  0  0  0  0  0  0  0  0
   -3.7240   -3.5396   -1.5627 H   0  0  0  0  0  0  0  0  0  0  0  0
    4.5701   -2.0398   -0.6089 H   0  0  0  0  0  0  0  0  0  0  0  0
    5.0664   -2.6564    0.9875 H   0  0  0  0  0  0  0  0  0  0  0  0
    3.3476   -2.6945    0.5139 H   0  0  0  0  0  0  0  0  0  0  0  0
    5.4154    1.0128    1.4091 H   0  0  0  0  0  0  0  0  0  0  0  0
    6.2053   -0.5742    1.5253 H   0  0  0  0  0  0  0  0  0  0  0  0
    5.8065    0.0947   -0.0715 H   0  0  0  0  0  0  0  0  0  0  0  0
    3.6256    0.1893    2.9840 H   0  0  0  0  0  0  0  0  0  0  0  0
    2.7819   -1.3531    2.6817 H   0  0  0  0  0  0  0  0  0  0  0  0
    4.5174   -1.3495    3.0896 H   0  0  0  0  0  0  0  0  0  0  0  0
   -2.7819    1.3530    2.6817 H   0  0  0  0  0  0  0  0  0  0  0  0
   -4.5175    1.3492    3.0897 H   0  0  0  0  0  0  0  0  0  0  0  0
   -3.6255   -0.1895    2.9839 H   0  0  0  0  0  0  0  0  0  0  0  0
   -4.5704    2.0397   -0.6088 H   0  0  0  0  0  0  0  0  0  0  0  0
   -5.0666    2.6562    0.9876 H   0  0  0  0  0  0  0  0  0  0  0  0
   -3.3479    2.6945    0.5139 H   0  0  0  0  0  0  0  0  0  0  0  0
   -5.8066   -0.0950   -0.0714 H   0  0  0  0  0  0  0  0  0  0  0  0
   -5.4152   -1.0131    1.4092 H   0  0  0  0  0  0  0  0  0  0  0  0
   -6.2053    0.5738    1.5254 H   0  0  0  0  0  0  0  0  0  0  0  0
   -0.4148    1.7130    0.7910 H   0  0  0  0  0  0  0  0  0  0  0  0
    0.4146   -1.7129    0.7910 H   0  0  0  0  0  0  0  0  0  0  0  0
  1  2  2  0  0  0  0
  1  6  1  0  0  0  0
  1 13  1  0  0  0  0
  2  3  1  0  0  0  0
  2 14  1  0  0  0  0
  3  4  2  0  0  0  0
  3  7  1  0  0  0  0
  4  5  1  0  0  0  0
  4 26  1  0  0  0  0
  5  6  2  0  0  0  0
  5 17  1  0  0  0  0
  6 27  1  0  0  0  0
  7  8  2  0  0  0  0
  7 12  1  0  0  0  0
  8  9  1  0  0  0  0
  8 15  1  0  0  0  0
  9 10  2  0  0  0  0
  9 16  1  0  0  0  0
 10 11  1  0  0  0  0
 10 28  1  0  0  0  0
 11 12  2  0  0  0  0
 11 21  1  0  0  0  0
 12 25  1  0  0  0  0
 13 29  1  0  0  0  0
 13 30  1  0  0  0  0
 13 31  1  0  0  0  0
 14 32  1  0  0  0  0
 14 33  1  0  0  0  0
 14 34  1  0  0  0  0
 15 35  1  0  0  0  0
 15 36  1  0  0  0  0
 15 37  1  0  0  0  0
 16 38  1  0  0  0  0
 16 39  1  0  0  0  0
 16 40  1  0  0  0  0
 17 18  1  0  0  0  0
 17 19  1  0  0  0  0
 17 20  1  0  0  0  0
 18 41  1  0  0  0  0
 18 42  1  0  0  0  0
 18 43  1  0  0  0  0
 19 44  1  0  0  0  0
 19 45  1  0  0  0  0
 19 46  1  0  0  0  0
 20 47  1  0  0  0  0
 20 48  1  0  0  0  0
 20 49  1  0  0  0  0
 21 22  1  0  0  0  0
 21 23  1  0  0  0  0
 21 24  1  0  0  0  0
 22 50  1  0  0  0  0
 22 51  1  0  0  0  0
 22 52  1  0  0  0  0
 23 53  1  0  0  0  0
 23 54  1  0  0  0  0
 23 55  1  0  0  0  0
 24 56  1  0  0  0  0
 24 57  1  0  0  0  0
 24 58  1  0  0  0  0
 25 59  1  0  0  0  0
 26 60  1  0  0  0  0
M  END
$$$$
