Title Card Required
 OpenBabel03192317413D

 64 68  0  0  0  0  0  0  0  0999 V2000
   -0.9157    1.3336    0.9499 O   0  0  0  0  0  0  0  0  0  0  0  0
   -1.9138    1.6285   -0.3810 P   0  0  0  0  0  0  0  0  0  0  0  0
   -0.9874    0.8046   -1.5310 O   0  0  0  0  0  0  0  0  0  0  0  0
   -0.4396   -0.4205   -1.2719 C   0  0  0  0  0  0  0  0  0  0  0  0
    0.6388   -0.5238   -0.3832 C   0  0  0  0  0  0  0  0  0  0  0  0
    1.2447    0.7380    0.1305 C   0  0  0  0  0  0  0  0  0  0  0  0
    0.4194    1.6265    0.8273 C   0  0  0  0  0  0  0  0  0  0  0  0
   -0.9769   -1.5531   -1.8807 C   0  0  0  0  0  0  0  0  0  0  0  0
   -0.4794   -2.8017   -1.5373 C   0  0  0  0  0  0  0  0  0  0  0  0
    0.5141   -2.9482   -0.5609 C   0  0  0  0  0  0  0  0  0  0  0  0
    0.9215   -4.3492   -0.1474 C   0  0  0  0  0  0  0  0  0  0  0  0
    2.1621   -4.3846    0.7378 C   0  0  0  0  0  0  0  0  0  0  0  0
    2.0486   -3.3137    1.8170 C   0  0  0  0  0  0  0  0  0  0  0  0
    2.0668   -1.9314    1.1716 C   0  0  0  0  0  0  0  0  0  0  0  0
    1.0736   -1.8019    0.0312 C   0  0  0  0  0  0  0  0  0  0  0  0
    0.9274    2.7991    1.3816 C   0  0  0  0  0  0  0  0  0  0  0  0
    2.2709    3.0956    1.2034 C   0  0  0  0  0  0  0  0  0  0  0  0
    3.1058    2.2738    0.4357 C   0  0  0  0  0  0  0  0  0  0  0  0
    4.5333    2.7220    0.1885 C   0  0  0  0  0  0  0  0  0  0  0  0
    5.3978    1.6567   -0.4759 C   0  0  0  0  0  0  0  0  0  0  0  0
    4.6274    1.0215   -1.6275 C   0  0  0  0  0  0  0  0  0  0  0  0
    3.4227    0.2619   -1.0806 C   0  0  0  0  0  0  0  0  0  0  0  0
    2.5870    1.0940   -0.1249 C   0  0  0  0  0  0  0  0  0  0  0  0
   -3.1442    0.5926    0.0994 N   0  0  0  0  0  0  0  0  0  0  0  0
   -4.5295    0.9736   -0.2346 C   0  0  0  0  0  0  0  0  0  0  0  0
   -4.8903    2.3832    0.2358 C   0  0  0  0  0  0  0  0  0  0  0  0
   -4.8172    0.7814   -1.7229 C   0  0  0  0  0  0  0  0  0  0  0  0
   -2.9493   -0.6173    0.9217 C   0  0  0  0  0  0  0  0  0  0  0  0
   -3.3668   -0.3537    2.3677 C   0  0  0  0  0  0  0  0  0  0  0  0
   -3.6496   -1.8456    0.3431 C   0  0  0  0  0  0  0  0  0  0  0  0
   -1.7853   -1.4265   -2.6017 H   0  0  0  0  0  0  0  0  0  0  0  0
   -0.8953   -3.6970   -2.0066 H   0  0  0  0  0  0  0  0  0  0  0  0
    1.0681   -4.9620   -1.0505 H   0  0  0  0  0  0  0  0  0  0  0  0
    0.0787   -4.8093    0.3976 H   0  0  0  0  0  0  0  0  0  0  0  0
    3.0624   -4.1878    0.1311 H   0  0  0  0  0  0  0  0  0  0  0  0
    2.2837   -5.3856    1.1763 H   0  0  0  0  0  0  0  0  0  0  0  0
    1.1075   -3.4570    2.3751 H   0  0  0  0  0  0  0  0  0  0  0  0
    2.8684   -3.3939    2.5453 H   0  0  0  0  0  0  0  0  0  0  0  0
    1.8604   -1.1463    1.9143 H   0  0  0  0  0  0  0  0  0  0  0  0
    3.0887   -1.7365    0.8103 H   0  0  0  0  0  0  0  0  0  0  0  0
    0.2575    3.4564    1.9365 H   0  0  0  0  0  0  0  0  0  0  0  0
    2.6841    4.0093    1.6381 H   0  0  0  0  0  0  0  0  0  0  0  0
    4.9777    3.0493    1.1414 H   0  0  0  0  0  0  0  0  0  0  0  0
    4.5079    3.6169   -0.4574 H   0  0  0  0  0  0  0  0  0  0  0  0
    5.6584    0.8738    0.2566 H   0  0  0  0  0  0  0  0  0  0  0  0
    6.3432    2.1000   -0.8210 H   0  0  0  0  0  0  0  0  0  0  0  0
    4.2916    1.8110   -2.3212 H   0  0  0  0  0  0  0  0  0  0  0  0
    5.2656    0.3374   -2.2051 H   0  0  0  0  0  0  0  0  0  0  0  0
    2.7760   -0.0925   -1.8972 H   0  0  0  0  0  0  0  0  0  0  0  0
    3.7910   -0.6454   -0.5768 H   0  0  0  0  0  0  0  0  0  0  0  0
   -5.1706    0.2790    0.3276 H   0  0  0  0  0  0  0  0  0  0  0  0
   -4.3296    3.1468   -0.3223 H   0  0  0  0  0  0  0  0  0  0  0  0
   -5.9629    2.5713    0.0824 H   0  0  0  0  0  0  0  0  0  0  0  0
   -4.6622    2.5004    1.3048 H   0  0  0  0  0  0  0  0  0  0  0  0
   -4.5998   -0.2520   -2.0285 H   0  0  0  0  0  0  0  0  0  0  0  0
   -5.8692    1.0025   -1.9568 H   0  0  0  0  0  0  0  0  0  0  0  0
   -4.1841    1.4540   -2.3234 H   0  0  0  0  0  0  0  0  0  0  0  0
   -1.8702   -0.8198    0.9186 H   0  0  0  0  0  0  0  0  0  0  0  0
   -4.4411   -0.1174    2.4339 H   0  0  0  0  0  0  0  0  0  0  0  0
   -3.1796   -1.2385    2.9939 H   0  0  0  0  0  0  0  0  0  0  0  0
   -2.7940    0.4919    2.7713 H   0  0  0  0  0  0  0  0  0  0  0  0
   -3.3480   -2.0160   -0.6984 H   0  0  0  0  0  0  0  0  0  0  0  0
   -3.3704   -2.7350    0.9269 H   0  0  0  0  0  0  0  0  0  0  0  0
   -4.7460   -1.7569    0.3834 H   0  0  0  0  0  0  0  0  0  0  0  0
  1  2  1  0  0  0  0
  1  7  1  0  0  0  0
  2  3  1  0  0  0  0
  2 24  1  0  0  0  0
  3  4  1  0  0  0  0
  4  5  2  0  0  0  0
  4  8  1  0  0  0  0
  5  6  1  0  0  0  0
  5 15  1  0  0  0  0
  6  7  2  0  0  0  0
  6 23  1  0  0  0  0
  7 16  1  0  0  0  0
  8  9  2  0  0  0  0
  8 31  1  0  0  0  0
  9 10  1  0  0  0  0
  9 32  1  0  0  0  0
 10 11  1  0  0  0  0
 10 15  2  0  0  0  0
 11 12  1  0  0  0  0
 11 33  1  0  0  0  0
 11 34  1  0  0  0  0
 12 13  1  0  0  0  0
 12 35  1  0  0  0  0
 12 36  1  0  0  0  0
 13 14  1  0  0  0  0
 13 37  1  0  0  0  0
 13 38  1  0  0  0  0
 14 15  1  0  0  0  0
 14 39  1  0  0  0  0
 14 40  1  0  0  0  0
 16 17  2  0  0  0  0
 16 41  1  0  0  0  0
 17 18  1  0  0  0  0
 17 42  1  0  0  0  0
 18 19  1  0  0  0  0
 18 23  2  0  0  0  0
 19 20  1  0  0  0  0
 19 43  1  0  0  0  0
 19 44  1  0  0  0  0
 20 21  1  0  0  0  0
 20 45  1  0  0  0  0
 20 46  1  0  0  0  0
 21 22  1  0  0  0  0
 21 47  1  0  0  0  0
 21 48  1  0  0  0  0
 22 23  1  0  0  0  0
 22 49  1  0  0  0  0
 22 50  1  0  0  0  0
 24 25  1  0  0  0  0
 24 28  1  0  0  0  0
 25 26  1  0  0  0  0
 25 27  1  0  0  0  0
 25 51  1  0  0  0  0
 26 52  1  0  0  0  0
 26 53  1  0  0  0  0
 26 54  1  0  0  0  0
 27 55  1  0  0  0  0
 27 56  1  0  0  0  0
 27 57  1  0  0  0  0
 28 29  1  0  0  0  0
 28 30  1  0  0  0  0
 28 58  1  0  0  0  0
 29 59  1  0  0  0  0
 29 60  1  0  0  0  0
 29 61  1  0  0  0  0
 30 62  1  0  0  0  0
 30 63  1  0  0  0  0
 30 64  1  0  0  0  0
M  END
$$$$
