Title Card Required
 OpenBabel03192317553D

 60 63  0  0  1  0  0  0  0  0999 V2000
   -2.7617   -2.1106   -0.4176 C   0  0  0  0  0  0  0  0  0  0  0  0
   -2.8505   -0.7145   -0.4072 C   0  0  0  0  0  0  0  0  0  0  0  0
   -1.7898    0.0843   -0.4059 N   0  0  0  0  0  0  0  0  0  0  0  0
   -0.5769   -0.4662   -0.4130 C   0  0  0  0  0  0  0  0  0  0  0  0
   -0.3766   -1.8525   -0.4194 C   0  0  0  0  0  0  0  0  0  0  0  0
   -1.4936   -2.6820   -0.4222 C   0  0  0  0  0  0  0  0  0  0  0  0
    0.5891    0.4645   -0.4150 C   0  0  0  0  0  0  0  0  0  0  0  0
    1.8017   -0.0857   -0.4098 N   0  0  0  0  0  0  0  0  0  0  0  0
    2.8615    0.7130   -0.4144 C   0  0  0  0  0  0  0  0  0  0  0  0
    2.7734    2.1089   -0.4266 C   0  0  0  0  0  0  0  0  0  0  0  0
    1.5056    2.6806   -0.4297 C   0  0  0  0  0  0  0  0  0  0  0  0
    0.3887    1.8511   -0.4233 C   0  0  0  0  0  0  0  0  0  0  0  0
   -4.1923   -0.0787   -0.3957 C   0  0  0  0  0  0  0  0  0  0  0  0
    4.2011    0.0776   -0.4039 C   0  0  0  0  0  0  0  0  0  0  0  0
   -4.2287    1.2668   -0.4051 O   0  0  0  0  0  0  0  0  0  0  0  0
   -5.6040    1.6266   -0.2584 C   0  0  0  0  0  0  0  0  0  0  0  0
   -6.3590    0.2837   -0.4113 C   0  0  1  0  0  0  0  0  0  0  0  0
   -5.2908   -0.7142   -0.3853 N   0  0  0  0  0  0  0  0  0  0  0  0
    5.2825    0.7081   -0.3945 N   0  0  0  0  0  0  0  0  0  0  0  0
    6.3572   -0.2828   -0.4155 C   0  0  2  0  0  0  0  0  0  0  0  0
    5.6100   -1.6293   -0.2751 C   0  0  0  0  0  0  0  0  0  0  0  0
    4.2362   -1.2664   -0.4124 O   0  0  0  0  0  0  0  0  0  0  0  0
   -7.4574    0.0050    0.6364 C   0  0  0  0  0  0  0  0  0  0  0  0
    7.4434   -0.0021    0.6447 C   0  0  0  0  0  0  0  0  0  0  0  0
   -8.4893    1.1349    0.5801 C   0  0  0  0  0  0  0  0  0  0  0  0
    6.8279    0.0925    2.0430 C   0  0  0  0  0  0  0  0  0  0  0  0
    8.4819   -1.1264    0.5959 C   0  0  0  0  0  0  0  0  0  0  0  0
   -8.1287   -1.3239    0.2792 C   0  0  0  0  0  0  0  0  0  0  0  0
    8.1120    1.3311    0.2987 C   0  0  0  0  0  0  0  0  0  0  0  0
   -6.8575   -0.0971    2.0411 C   0  0  0  0  0  0  0  0  0  0  0  0
   -3.6775   -2.7009   -0.4212 H   0  0  0  0  0  0  0  0  0  0  0  0
    0.6436   -2.2346   -0.4232 H   0  0  0  0  0  0  0  0  0  0  0  0
   -1.3760   -3.7667   -0.4289 H   0  0  0  0  0  0  0  0  0  0  0  0
    3.6894    2.6989   -0.4327 H   0  0  0  0  0  0  0  0  0  0  0  0
    1.3882    3.7652   -0.4379 H   0  0  0  0  0  0  0  0  0  0  0  0
   -0.6315    2.2332   -0.4257 H   0  0  0  0  0  0  0  0  0  0  0  0
   -5.8610    2.3692   -1.0239 H   0  0  0  0  0  0  0  0  0  0  0  0
   -5.7375    2.0815    0.7355 H   0  0  0  0  0  0  0  0  0  0  0  0
   -6.8443    0.2305   -1.4032 H   0  0  0  0  0  0  0  0  0  0  0  0
    6.8524   -0.2223   -1.4020 H   0  0  0  0  0  0  0  0  0  0  0  0
    5.8660   -2.3618   -1.0506 H   0  0  0  0  0  0  0  0  0  0  0  0
    5.7486   -2.0972    0.7119 H   0  0  0  0  0  0  0  0  0  0  0  0
   -8.9247    1.2235   -0.4278 H   0  0  0  0  0  0  0  0  0  0  0  0
   -9.3101    0.9394    1.2864 H   0  0  0  0  0  0  0  0  0  0  0  0
   -8.0466    2.1067    0.8492 H   0  0  0  0  0  0  0  0  0  0  0  0
    6.3554   -0.8514    2.3553 H   0  0  0  0  0  0  0  0  0  0  0  0
    7.6074    0.3300    2.7826 H   0  0  0  0  0  0  0  0  0  0  0  0
    6.0670    0.8852    2.0754 H   0  0  0  0  0  0  0  0  0  0  0  0
    8.9241   -1.2134   -0.4092 H   0  0  0  0  0  0  0  0  0  0  0  0
    9.2973   -0.9257    1.3070 H   0  0  0  0  0  0  0  0  0  0  0  0
    8.0432   -2.1005    0.8632 H   0  0  0  0  0  0  0  0  0  0  0  0
   -7.3889   -2.1357    0.2748 H   0  0  0  0  0  0  0  0  0  0  0  0
   -8.9181   -1.5655    1.0069 H   0  0  0  0  0  0  0  0  0  0  0  0
   -8.5889   -1.2745   -0.7199 H   0  0  0  0  0  0  0  0  0  0  0  0
    8.5885    1.2850   -0.6930 H   0  0  0  0  0  0  0  0  0  0  0  0
    7.3673    2.1382    0.2827 H   0  0  0  0  0  0  0  0  0  0  0  0
    8.8882    1.5772    1.0389 H   0  0  0  0  0  0  0  0  0  0  0  0
   -6.0911   -0.8846    2.0759 H   0  0  0  0  0  0  0  0  0  0  0  0
   -6.3964    0.8476    2.3675 H   0  0  0  0  0  0  0  0  0  0  0  0
   -7.6439   -0.3471    2.7691 H   0  0  0  0  0  0  0  0  0  0  0  0
  1  2  2  0  0  0  0
  1  6  1  0  0  0  0
  1 31  1  0  0  0  0
  2  3  1  0  0  0  0
  2 13  1  0  0  0  0
  3  4  2  0  0  0  0
  4  5  1  0  0  0  0
  4  7  1  0  0  0  0
  5  6  2  0  0  0  0
  5 32  1  0  0  0  0
  6 33  1  0  0  0  0
  7  8  2  0  0  0  0
  7 12  1  0  0  0  0
  8  9  1  0  0  0  0
  9 10  2  0  0  0  0
  9 14  1  0  0  0  0
 10 11  1  0  0  0  0
 10 34  1  0  0  0  0
 11 12  2  0  0  0  0
 11 35  1  0  0  0  0
 12 36  1  0  0  0  0
 13 15  1  0  0  0  0
 13 18  2  0  0  0  0
 14 19  2  0  0  0  0
 14 22  1  0  0  0  0
 15 16  1  0  0  0  0
 16 17  1  0  0  0  0
 16 37  1  0  0  0  0
 16 38  1  0  0  0  0
 17 18  1  0  0  0  0
 17 23  1  0  0  0  0
 17 39  1  6  0  0  0
 19 20  1  0  0  0  0
 20 21  1  0  0  0  0
 20 24  1  0  0  0  0
 20 40  1  6  0  0  0
 21 22  1  0  0  0  0
 21 41  1  0  0  0  0
 21 42  1  0  0  0  0
 23 25  1  0  0  0  0
 23 28  1  0  0  0  0
 23 30  1  0  0  0  0
 24 26  1  0  0  0  0
 24 27  1  0  0  0  0
 24 29  1  0  0  0  0
 25 43  1  0  0  0  0
 25 44  1  0  0  0  0
 25 45  1  0  0  0  0
 26 46  1  0  0  0  0
 26 47  1  0  0  0  0
 26 48  1  0  0  0  0
 27 49  1  0  0  0  0
 27 50  1  0  0  0  0
 27 51  1  0  0  0  0
 28 52  1  0  0  0  0
 28 53  1  0  0  0  0
 28 54  1  0  0  0  0
 29 55  1  0  0  0  0
 29 56  1  0  0  0  0
 29 57  1  0  0  0  0
 30 58  1  0  0  0  0
 30 59  1  0  0  0  0
 30 60  1  0  0  0  0
M  END
$$$$
