Title Card Required
 OpenBabel03192317483D

 70 76  0  0  1  0  0  0  0  0999 V2000
   -0.8796    0.5856   -1.1065 O   0  0  0  0  0  0  0  0  0  0  0  0
   -1.6506    0.7460    0.3936 P   0  0  0  0  0  0  0  0  0  0  0  0
   -0.3147    0.4073    1.3476 O   0  0  0  0  0  0  0  0  0  0  0  0
    0.7388    1.2706    1.2333 C   0  0  0  0  0  0  0  0  0  0  0  0
    1.6170    1.1393    0.1745 C   0  0  0  0  0  0  0  0  0  0  0  0
    1.4339    0.0214   -0.7870 C   0  0  0  0  0  0  0  0  0  0  0  0
    0.2100   -0.1689   -1.4100 C   0  0  0  0  0  0  0  0  0  0  0  0
    0.8908    2.2780    2.2177 C   0  0  0  0  0  0  0  0  0  0  0  0
    1.9243    3.1709    2.1229 C   0  0  0  0  0  0  0  0  0  0  0  0
    2.8228    3.1246    1.0216 C   0  0  0  0  0  0  0  0  0  0  0  0
    3.8637    4.0827    0.8823 C   0  0  0  0  0  0  0  0  0  0  0  0
    4.7005    4.0632   -0.2056 C   0  0  0  0  0  0  0  0  0  0  0  0
    4.5200    3.0844   -1.2124 C   0  0  0  0  0  0  0  0  0  0  0  0
    3.5294    2.1388   -1.1010 C   0  0  0  0  0  0  0  0  0  0  0  0
    2.6611    2.1152    0.0270 C   0  0  0  0  0  0  0  0  0  0  0  0
    0.0596   -1.1202   -2.4540 C   0  0  0  0  0  0  0  0  0  0  0  0
    1.0919   -1.9540   -2.7890 C   0  0  0  0  0  0  0  0  0  0  0  0
    2.3194   -1.9017   -2.0723 C   0  0  0  0  0  0  0  0  0  0  0  0
    3.3601   -2.8374   -2.3209 C   0  0  0  0  0  0  0  0  0  0  0  0
    4.5258   -2.8061   -1.5955 C   0  0  0  0  0  0  0  0  0  0  0  0
    4.6961   -1.8298   -0.5839 C   0  0  0  0  0  0  0  0  0  0  0  0
    3.7121   -0.9049   -0.3296 C   0  0  0  0  0  0  0  0  0  0  0  0
    2.4957   -0.9037   -1.0696 C   0  0  0  0  0  0  0  0  0  0  0  0
   -2.5411   -0.6626    0.6703 N   0  0  0  0  0  0  0  0  0  0  0  0
   -4.0011   -0.4345    0.7949 C   0  0  1  0  0  0  0  0  0  0  0  0
   -4.3634   -0.0212    2.2176 C   0  0  0  0  0  0  0  0  0  0  0  0
   -4.5480    0.4902   -0.2894 C   0  0  0  0  0  0  0  0  0  0  0  0
   -4.2221    0.2323   -1.6287 C   0  0  0  0  0  0  0  0  0  0  0  0
   -4.7244    1.0273   -2.6526 C   0  0  0  0  0  0  0  0  0  0  0  0
   -5.5655    2.1017   -2.3570 C   0  0  0  0  0  0  0  0  0  0  0  0
   -5.8951    2.3676   -1.0317 C   0  0  0  0  0  0  0  0  0  0  0  0
   -5.3903    1.5669   -0.0051 C   0  0  0  0  0  0  0  0  0  0  0  0
   -2.1641   -2.0892    0.8091 C   0  0  1  0  0  0  0  0  0  0  0  0
   -2.3806   -2.8438   -0.4992 C   0  0  0  0  0  0  0  0  0  0  0  0
   -0.7996   -2.3257    1.4350 C   0  0  0  0  0  0  0  0  0  0  0  0
   -0.6364   -2.0695    2.8015 C   0  0  0  0  0  0  0  0  0  0  0  0
    0.5938   -2.2524    3.4198 C   0  0  0  0  0  0  0  0  0  0  0  0
    1.6866   -2.7090    2.6774 C   0  0  0  0  0  0  0  0  0  0  0  0
    1.5290   -2.9925    1.3248 C   0  0  0  0  0  0  0  0  0  0  0  0
    0.2891   -2.8048    0.7083 C   0  0  0  0  0  0  0  0  0  0  0  0
    0.1732    2.3067    3.0380 H   0  0  0  0  0  0  0  0  0  0  0  0
    2.0591    3.9442    2.8817 H   0  0  0  0  0  0  0  0  0  0  0  0
    3.9784    4.8431    1.6578 H   0  0  0  0  0  0  0  0  0  0  0  0
    5.4931    4.8061   -0.3046 H   0  0  0  0  0  0  0  0  0  0  0  0
    5.1686    3.0849   -2.0897 H   0  0  0  0  0  0  0  0  0  0  0  0
    3.3953    1.3985   -1.8894 H   0  0  0  0  0  0  0  0  0  0  0  0
   -0.8970   -1.1499   -2.9770 H   0  0  0  0  0  0  0  0  0  0  0  0
    0.9763   -2.6855   -3.5912 H   0  0  0  0  0  0  0  0  0  0  0  0
    3.2087   -3.5912   -3.0966 H   0  0  0  0  0  0  0  0  0  0  0  0
    5.3149   -3.5341   -1.7885 H   0  0  0  0  0  0  0  0  0  0  0  0
    5.6135   -1.8174    0.0067 H   0  0  0  0  0  0  0  0  0  0  0  0
    3.8485   -0.1724    0.4658 H   0  0  0  0  0  0  0  0  0  0  0  0
   -4.4683   -1.4145    0.6033 H   0  0  0  0  0  0  0  0  0  0  0  0
   -3.9553    0.9754    2.4441 H   0  0  0  0  0  0  0  0  0  0  0  0
   -5.4511   -0.0016    2.3733 H   0  0  0  0  0  0  0  0  0  0  0  0
   -3.9292   -0.7391    2.9278 H   0  0  0  0  0  0  0  0  0  0  0  0
   -3.5443   -0.5917   -1.8618 H   0  0  0  0  0  0  0  0  0  0  0  0
   -4.4550    0.8119   -3.6878 H   0  0  0  0  0  0  0  0  0  0  0  0
   -5.9567    2.7307   -3.1578 H   0  0  0  0  0  0  0  0  0  0  0  0
   -6.5461    3.2085   -0.7874 H   0  0  0  0  0  0  0  0  0  0  0  0
   -5.6563    1.7997    1.0261 H   0  0  0  0  0  0  0  0  0  0  0  0
   -2.8827   -2.4926    1.5441 H   0  0  0  0  0  0  0  0  0  0  0  0
   -1.7188   -2.4564   -1.2845 H   0  0  0  0  0  0  0  0  0  0  0  0
   -2.1764   -3.9159   -0.3682 H   0  0  0  0  0  0  0  0  0  0  0  0
   -3.4198   -2.7308   -0.8410 H   0  0  0  0  0  0  0  0  0  0  0  0
   -1.4863   -1.6928    3.3769 H   0  0  0  0  0  0  0  0  0  0  0  0
    0.7065   -2.0387    4.4840 H   0  0  0  0  0  0  0  0  0  0  0  0
    2.6567   -2.8489    3.1573 H   0  0  0  0  0  0  0  0  0  0  0  0
    2.3748   -3.3481    0.7317 H   0  0  0  0  0  0  0  0  0  0  0  0
    0.1918   -3.0199   -0.3573 H   0  0  0  0  0  0  0  0  0  0  0  0
  1  2  1  0  0  0  0
  1  7  1  0  0  0  0
  2  3  1  0  0  0  0
  2 24  1  0  0  0  0
  3  4  1  0  0  0  0
  4  5  2  0  0  0  0
  4  8  1  0  0  0  0
  5  6  1  0  0  0  0
  5 15  1  0  0  0  0
  6  7  2  0  0  0  0
  6 23  1  0  0  0  0
  7 16  1  0  0  0  0
  8  9  2  0  0  0  0
  8 41  1  0  0  0  0
  9 10  1  0  0  0  0
  9 42  1  0  0  0  0
 10 11  2  0  0  0  0
 10 15  1  0  0  0  0
 11 12  1  0  0  0  0
 11 43  1  0  0  0  0
 12 13  2  0  0  0  0
 12 44  1  0  0  0  0
 13 14  1  0  0  0  0
 13 45  1  0  0  0  0
 14 15  2  0  0  0  0
 14 46  1  0  0  0  0
 16 17  2  0  0  0  0
 16 47  1  0  0  0  0
 17 18  1  0  0  0  0
 17 48  1  0  0  0  0
 18 19  2  0  0  0  0
 18 23  1  0  0  0  0
 19 20  1  0  0  0  0
 19 49  1  0  0  0  0
 20 21  2  0  0  0  0
 20 50  1  0  0  0  0
 21 22  1  0  0  0  0
 21 51  1  0  0  0  0
 22 23  2  0  0  0  0
 22 52  1  0  0  0  0
 24 25  1  0  0  0  0
 24 33  1  0  0  0  0
 25 26  1  0  0  0  0
 25 27  1  0  0  0  0
 25 53  1  6  0  0  0
 26 54  1  0  0  0  0
 26 55  1  0  0  0  0
 26 56  1  0  0  0  0
 27 28  2  0  0  0  0
 27 32  1  0  0  0  0
 28 29  1  0  0  0  0
 28 57  1  0  0  0  0
 29 30  2  0  0  0  0
 29 58  1  0  0  0  0
 30 31  1  0  0  0  0
 30 59  1  0  0  0  0
 31 32  2  0  0  0  0
 31 60  1  0  0  0  0
 32 61  1  0  0  0  0
 33 34  1  0  0  0  0
 33 35  1  0  0  0  0
 33 62  1  1  0  0  0
 34 63  1  0  0  0  0
 34 64  1  0  0  0  0
 34 65  1  0  0  0  0
 35 36  2  0  0  0  0
 35 40  1  0  0  0  0
 36 37  1  0  0  0  0
 36 66  1  0  0  0  0
 37 38  2  0  0  0  0
 37 67  1  0  0  0  0
 38 39  1  0  0  0  0
 38 68  1  0  0  0  0
 39 40  2  0  0  0  0
 39 69  1  0  0  0  0
 40 70  1  0  0  0  0
M  END
$$$$
