Title Card Required
 OpenBabel03192317563D

 70 76  0  0  1  0  0  0  0  0999 V2000
   -0.8796    0.5856   -1.1061 O   0  0  0  0  0  0  0  0  0  0  0  0
   -1.6504    0.7456    0.3943 P   0  0  0  0  0  0  0  0  0  0  0  0
   -0.3142    0.4060    1.3478 O   0  0  0  0  0  0  0  0  0  0  0  0
    0.7389    1.2699    1.2338 C   0  0  0  0  0  0  0  0  0  0  0  0
    1.6170    1.1393    0.1749 C   0  0  0  0  0  0  0  0  0  0  0  0
    1.4341    0.0217   -0.7871 C   0  0  0  0  0  0  0  0  0  0  0  0
    0.2102   -0.1683   -1.4102 C   0  0  0  0  0  0  0  0  0  0  0  0
    0.8904    2.2772    2.2183 C   0  0  0  0  0  0  0  0  0  0  0  0
    1.9236    3.1706    2.1238 C   0  0  0  0  0  0  0  0  0  0  0  0
    2.8222    3.1248    1.0225 C   0  0  0  0  0  0  0  0  0  0  0  0
    3.8627    4.0832    0.8834 C   0  0  0  0  0  0  0  0  0  0  0  0
    4.6995    4.0643   -0.2045 C   0  0  0  0  0  0  0  0  0  0  0  0
    4.5194    3.0856   -1.2116 C   0  0  0  0  0  0  0  0  0  0  0  0
    3.5291    2.1397   -1.1003 C   0  0  0  0  0  0  0  0  0  0  0  0
    2.6608    2.1156    0.0276 C   0  0  0  0  0  0  0  0  0  0  0  0
    0.0601   -1.1192   -2.4547 C   0  0  0  0  0  0  0  0  0  0  0  0
    1.0925   -1.9529   -2.7896 C   0  0  0  0  0  0  0  0  0  0  0  0
    2.3198   -1.9011   -2.0727 C   0  0  0  0  0  0  0  0  0  0  0  0
    3.3604   -2.8368   -2.3212 C   0  0  0  0  0  0  0  0  0  0  0  0
    4.5259   -2.8057   -1.5954 C   0  0  0  0  0  0  0  0  0  0  0  0
    4.6961   -1.8295   -0.5837 C   0  0  0  0  0  0  0  0  0  0  0  0
    3.7121   -0.9047   -0.3294 C   0  0  0  0  0  0  0  0  0  0  0  0
    2.4959   -0.9033   -1.0697 C   0  0  0  0  0  0  0  0  0  0  0  0
   -2.5411   -0.6628    0.6708 N   0  0  0  0  0  0  0  0  0  0  0  0
   -4.0012   -0.4346    0.7948 C   0  0  1  0  0  0  0  0  0  0  0  0
   -4.3638   -0.0215    2.2175 C   0  0  0  0  0  0  0  0  0  0  0  0
   -4.5478    0.4904   -0.2894 C   0  0  0  0  0  0  0  0  0  0  0  0
   -4.2218    0.2327   -1.6288 C   0  0  0  0  0  0  0  0  0  0  0  0
   -4.7237    1.0280   -2.6525 C   0  0  0  0  0  0  0  0  0  0  0  0
   -5.5646    2.1026   -2.3568 C   0  0  0  0  0  0  0  0  0  0  0  0
   -5.8944    2.3682   -1.0315 C   0  0  0  0  0  0  0  0  0  0  0  0
   -5.3900    1.5672   -0.0050 C   0  0  0  0  0  0  0  0  0  0  0  0
   -2.1644   -2.0896    0.8086 C   0  0  1  0  0  0  0  0  0  0  0  0
   -2.3810   -2.8434   -0.5002 C   0  0  0  0  0  0  0  0  0  0  0  0
   -0.7999   -2.3267    1.4343 C   0  0  0  0  0  0  0  0  0  0  0  0
   -0.6365   -2.0719    2.8009 C   0  0  0  0  0  0  0  0  0  0  0  0
    0.5938   -2.2550    3.4190 C   0  0  0  0  0  0  0  0  0  0  0  0
    1.6866   -2.7105    2.6760 C   0  0  0  0  0  0  0  0  0  0  0  0
    1.5289   -2.9928    1.3230 C   0  0  0  0  0  0  0  0  0  0  0  0
    0.2889   -2.8048    0.7069 C   0  0  0  0  0  0  0  0  0  0  0  0
    0.1730    2.3056    3.0387 H   0  0  0  0  0  0  0  0  0  0  0  0
    2.0580    3.9438    2.8827 H   0  0  0  0  0  0  0  0  0  0  0  0
    3.9772    4.8435    1.6590 H   0  0  0  0  0  0  0  0  0  0  0  0
    5.4920    4.8074   -0.3034 H   0  0  0  0  0  0  0  0  0  0  0  0
    5.1681    3.0864   -2.0888 H   0  0  0  0  0  0  0  0  0  0  0  0
    3.3953    1.3995   -1.8889 H   0  0  0  0  0  0  0  0  0  0  0  0
   -0.8964   -1.1488   -2.9779 H   0  0  0  0  0  0  0  0  0  0  0  0
    0.9769   -2.6844   -3.5920 H   0  0  0  0  0  0  0  0  0  0  0  0
    3.2092   -3.5905   -3.0970 H   0  0  0  0  0  0  0  0  0  0  0  0
    5.3150   -3.5337   -1.7883 H   0  0  0  0  0  0  0  0  0  0  0  0
    5.6134   -1.8173    0.0071 H   0  0  0  0  0  0  0  0  0  0  0  0
    3.8484   -0.1723    0.4662 H   0  0  0  0  0  0  0  0  0  0  0  0
   -4.4683   -1.4145    0.6029 H   0  0  0  0  0  0  0  0  0  0  0  0
   -3.9559    0.9752    2.4442 H   0  0  0  0  0  0  0  0  0  0  0  0
   -5.4515   -0.0021    2.3729 H   0  0  0  0  0  0  0  0  0  0  0  0
   -3.9296   -0.7393    2.9278 H   0  0  0  0  0  0  0  0  0  0  0  0
   -3.5442   -0.5914   -1.8620 H   0  0  0  0  0  0  0  0  0  0  0  0
   -4.4543    0.8129   -3.6878 H   0  0  0  0  0  0  0  0  0  0  0  0
   -5.9556    2.7319   -3.1575 H   0  0  0  0  0  0  0  0  0  0  0  0
   -6.5453    3.2092   -0.7871 H   0  0  0  0  0  0  0  0  0  0  0  0
   -5.6561    1.7998    1.0262 H   0  0  0  0  0  0  0  0  0  0  0  0
   -2.8829   -2.4933    1.5435 H   0  0  0  0  0  0  0  0  0  0  0  0
   -1.7191   -2.4555   -1.2852 H   0  0  0  0  0  0  0  0  0  0  0  0
   -2.1767   -3.9155   -0.3698 H   0  0  0  0  0  0  0  0  0  0  0  0
   -3.4201   -2.7302   -0.8420 H   0  0  0  0  0  0  0  0  0  0  0  0
   -1.4866   -1.6963    3.3769 H   0  0  0  0  0  0  0  0  0  0  0  0
    0.7066   -2.0423    4.4833 H   0  0  0  0  0  0  0  0  0  0  0  0
    2.6569   -2.8507    3.1556 H   0  0  0  0  0  0  0  0  0  0  0  0
    2.3748   -3.3475    0.7294 H   0  0  0  0  0  0  0  0  0  0  0  0
    0.1916   -3.0189   -0.3588 H   0  0  0  0  0  0  0  0  0  0  0  0
  1  2  1  0  0  0  0
  1  7  1  0  0  0  0
  2  3  1  0  0  0  0
  2 24  1  0  0  0  0
  3  4  1  0  0  0  0
  4  5  2  0  0  0  0
  4  8  1  0  0  0  0
  5  6  1  0  0  0  0
  5 15  1  0  0  0  0
  6  7  2  0  0  0  0
  6 23  1  0  0  0  0
  7 16  1  0  0  0  0
  8  9  2  0  0  0  0
  8 41  1  0  0  0  0
  9 10  1  0  0  0  0
  9 42  1  0  0  0  0
 10 11  2  0  0  0  0
 10 15  1  0  0  0  0
 11 12  1  0  0  0  0
 11 43  1  0  0  0  0
 12 13  2  0  0  0  0
 12 44  1  0  0  0  0
 13 14  1  0  0  0  0
 13 45  1  0  0  0  0
 14 15  2  0  0  0  0
 14 46  1  0  0  0  0
 16 17  2  0  0  0  0
 16 47  1  0  0  0  0
 17 18  1  0  0  0  0
 17 48  1  0  0  0  0
 18 19  2  0  0  0  0
 18 23  1  0  0  0  0
 19 20  1  0  0  0  0
 19 49  1  0  0  0  0
 20 21  2  0  0  0  0
 20 50  1  0  0  0  0
 21 22  1  0  0  0  0
 21 51  1  0  0  0  0
 22 23  2  0  0  0  0
 22 52  1  0  0  0  0
 24 25  1  0  0  0  0
 24 33  1  0  0  0  0
 25 26  1  0  0  0  0
 25 27  1  0  0  0  0
 25 53  1  6  0  0  0
 26 54  1  0  0  0  0
 26 55  1  0  0  0  0
 26 56  1  0  0  0  0
 27 28  2  0  0  0  0
 27 32  1  0  0  0  0
 28 29  1  0  0  0  0
 28 57  1  0  0  0  0
 29 30  2  0  0  0  0
 29 58  1  0  0  0  0
 30 31  1  0  0  0  0
 30 59  1  0  0  0  0
 31 32  2  0  0  0  0
 31 60  1  0  0  0  0
 32 61  1  0  0  0  0
 33 34  1  0  0  0  0
 33 35  1  0  0  0  0
 33 62  1  1  0  0  0
 34 63  1  0  0  0  0
 34 64  1  0  0  0  0
 34 65  1  0  0  0  0
 35 36  2  0  0  0  0
 35 40  1  0  0  0  0
 36 37  1  0  0  0  0
 36 66  1  0  0  0  0
 37 38  2  0  0  0  0
 37 67  1  0  0  0  0
 38 39  1  0  0  0  0
 38 68  1  0  0  0  0
 39 40  2  0  0  0  0
 39 69  1  0  0  0  0
 40 70  1  0  0  0  0
M  END
$$$$
