Title Card Required
 OpenBabel03192317453D

 53 55  0  0  1  0  0  0  0  0999 V2000
   -3.4685   -0.1215   -0.3369 N   0  0  0  0  0  0  0  0  0  0  0  0
   -2.9319    0.8539   -1.2809 C   0  0  1  0  0  0  0  0  0  0  0  0
   -3.3900    2.2306   -0.7540 C   0  0  0  0  0  0  0  0  0  0  0  0
   -4.7121    1.9291   -0.0142 C   0  0  0  0  0  0  0  0  0  0  0  0
   -4.8032    0.3791   -0.0256 C   0  0  0  0  0  0  0  0  0  0  0  0
   -1.4290    0.6963   -1.4299 C   0  0  0  0  0  0  0  0  0  0  0  0
   -0.8340    0.7609   -0.1526 O   0  0  0  0  0  0  0  0  0  0  0  0
    0.5710   -0.0111    0.3447 Si  0  0  0  0  0  0  0  0  0  0  0  0
    0.5201   -1.7830   -0.2874 C   0  0  0  0  0  0  0  0  0  0  0  0
    1.6640   -2.5095   -0.6514 C   0  0  0  0  0  0  0  0  0  0  0  0
    1.5759   -3.8453   -1.0442 C   0  0  0  0  0  0  0  0  0  0  0  0
    0.3348   -4.4776   -1.0907 C   0  0  0  0  0  0  0  0  0  0  0  0
   -0.8170   -3.7683   -0.7516 C   0  0  0  0  0  0  0  0  0  0  0  0
   -0.7247   -2.4355   -0.3524 C   0  0  0  0  0  0  0  0  0  0  0  0
    2.0367    0.9724   -0.3069 C   0  0  0  0  0  0  0  0  0  0  0  0
    1.7829    2.2004   -0.9387 C   0  0  0  0  0  0  0  0  0  0  0  0
    2.8232    2.9998   -1.4122 C   0  0  0  0  0  0  0  0  0  0  0  0
    4.1451    2.5869   -1.2568 C   0  0  0  0  0  0  0  0  0  0  0  0
    4.4216    1.3772   -0.6201 C   0  0  0  0  0  0  0  0  0  0  0  0
    3.3775    0.5822   -0.1494 C   0  0  0  0  0  0  0  0  0  0  0  0
    0.5034    0.0559    2.2371 C   0  0  0  0  0  0  0  0  0  0  0  0
   -0.7150   -0.7330    2.7309 C   0  0  0  0  0  0  0  0  0  0  0  0
    1.7809   -0.5530    2.8283 C   0  0  0  0  0  0  0  0  0  0  0  0
    0.3784    1.5237    2.6662 C   0  0  0  0  0  0  0  0  0  0  0  0
   -2.8875   -0.0475    0.5007 H   0  0  0  0  0  0  0  0  0  0  0  0
   -3.3907    0.6669   -2.2682 H   0  0  0  0  0  0  0  0  0  0  0  0
   -2.6274    2.6058   -0.0550 H   0  0  0  0  0  0  0  0  0  0  0  0
   -3.5039    2.9711   -1.5579 H   0  0  0  0  0  0  0  0  0  0  0  0
   -4.6850    2.3151    1.0142 H   0  0  0  0  0  0  0  0  0  0  0  0
   -5.5808    2.3872   -0.5069 H   0  0  0  0  0  0  0  0  0  0  0  0
   -5.1680   -0.0445    0.9197 H   0  0  0  0  0  0  0  0  0  0  0  0
   -5.4930    0.0485   -0.8183 H   0  0  0  0  0  0  0  0  0  0  0  0
   -1.2067   -0.2685   -1.9168 H   0  0  0  0  0  0  0  0  0  0  0  0
   -1.0356    1.5001   -2.0774 H   0  0  0  0  0  0  0  0  0  0  0  0
    2.6442   -2.0279   -0.6446 H   0  0  0  0  0  0  0  0  0  0  0  0
    2.4790   -4.3918   -1.3212 H   0  0  0  0  0  0  0  0  0  0  0  0
    0.2639   -5.5216   -1.4012 H   0  0  0  0  0  0  0  0  0  0  0  0
   -1.7941   -4.2515   -0.8027 H   0  0  0  0  0  0  0  0  0  0  0  0
   -1.6462   -1.8933   -0.1171 H   0  0  0  0  0  0  0  0  0  0  0  0
    0.7504    2.5407   -1.0504 H   0  0  0  0  0  0  0  0  0  0  0  0
    2.6015    3.9498   -1.9016 H   0  0  0  0  0  0  0  0  0  0  0  0
    4.9613    3.2102   -1.6259 H   0  0  0  0  0  0  0  0  0  0  0  0
    5.4551    1.0532   -0.4868 H   0  0  0  0  0  0  0  0  0  0  0  0
    3.6220   -0.3530    0.3610 H   0  0  0  0  0  0  0  0  0  0  0  0
   -0.6511   -1.7979    2.4591 H   0  0  0  0  0  0  0  0  0  0  0  0
   -0.7861   -0.6694    3.8302 H   0  0  0  0  0  0  0  0  0  0  0  0
   -1.6521   -0.3294    2.3156 H   0  0  0  0  0  0  0  0  0  0  0  0
    2.6719    0.0348    2.5585 H   0  0  0  0  0  0  0  0  0  0  0  0
    1.7173   -0.5667    3.9297 H   0  0  0  0  0  0  0  0  0  0  0  0
    1.9336   -1.5916    2.4918 H   0  0  0  0  0  0  0  0  0  0  0  0
    1.2398    2.1198    2.3260 H   0  0  0  0  0  0  0  0  0  0  0  0
   -0.5348    1.9815    2.2563 H   0  0  0  0  0  0  0  0  0  0  0  0
    0.3322    1.5952    3.7665 H   0  0  0  0  0  0  0  0  0  0  0  0
  1  2  1  0  0  0  0
  1  5  1  0  0  0  0
  1 25  1  0  0  0  0
  2  3  1  0  0  0  0
  2  6  1  0  0  0  0
  2 26  1  6  0  0  0
  3  4  1  0  0  0  0
  3 27  1  0  0  0  0
  3 28  1  0  0  0  0
  4  5  1  0  0  0  0
  4 29  1  0  0  0  0
  4 30  1  0  0  0  0
  5 31  1  0  0  0  0
  5 32  1  0  0  0  0
  6  7  1  0  0  0  0
  6 33  1  0  0  0  0
  6 34  1  0  0  0  0
  7  8  1  0  0  0  0
  8  9  1  0  0  0  0
  8 15  1  0  0  0  0
  8 21  1  0  0  0  0
  9 10  2  0  0  0  0
  9 14  1  0  0  0  0
 10 11  1  0  0  0  0
 10 35  1  0  0  0  0
 11 12  2  0  0  0  0
 11 36  1  0  0  0  0
 12 13  1  0  0  0  0
 12 37  1  0  0  0  0
 13 14  2  0  0  0  0
 13 38  1  0  0  0  0
 14 39  1  0  0  0  0
 15 16  2  0  0  0  0
 15 20  1  0  0  0  0
 16 17  1  0  0  0  0
 16 40  1  0  0  0  0
 17 18  2  0  0  0  0
 17 41  1  0  0  0  0
 18 19  1  0  0  0  0
 18 42  1  0  0  0  0
 19 20  2  0  0  0  0
 19 43  1  0  0  0  0
 20 44  1  0  0  0  0
 21 22  1  0  0  0  0
 21 23  1  0  0  0  0
 21 24  1  0  0  0  0
 22 45  1  0  0  0  0
 22 46  1  0  0  0  0
 22 47  1  0  0  0  0
 23 48  1  0  0  0  0
 23 49  1  0  0  0  0
 23 50  1  0  0  0  0
 24 51  1  0  0  0  0
 24 52  1  0  0  0  0
 24 53  1  0  0  0  0
M  END
$$$$
