Title Card Required
 OpenBabel03192317503D

 33 36  0  0  1  0  0  0  0  0999 V2000
   -1.0782   -1.7201   -0.1241 O   0  0  0  0  0  0  0  0  0  0  0  0
   -0.5568   -0.6278   -0.7082 C   0  0  0  0  0  0  0  0  0  0  0  0
   -1.3006    0.0914   -1.4447 N   0  0  0  0  0  0  0  0  0  0  0  0
   -2.6340   -0.5040   -1.3737 C   0  0  1  0  0  0  0  0  0  0  0  0
   -2.4331   -1.8324   -0.5810 C   0  0  2  0  0  0  0  0  0  0  0  0
   -3.4217   -1.8341    0.5921 C   0  0  0  0  0  0  0  0  0  0  0  0
   -3.9817   -0.4311    0.6130 C   0  0  0  0  0  0  0  0  0  0  0  0
   -4.8246    0.1491    1.5602 C   0  0  0  0  0  0  0  0  0  0  0  0
   -5.2425    1.4671    1.3791 C   0  0  0  0  0  0  0  0  0  0  0  0
   -4.8220    2.2008    0.2655 C   0  0  0  0  0  0  0  0  0  0  0  0
   -3.9781    1.6226   -0.6819 C   0  0  0  0  0  0  0  0  0  0  0  0
   -3.5701    0.3034   -0.5003 C   0  0  0  0  0  0  0  0  0  0  0  0
    0.8765   -0.3426   -0.4404 C   0  0  0  0  0  0  0  0  0  0  0  0
    1.4513    0.7949   -1.0166 C   0  0  0  0  0  0  0  0  0  0  0  0
    2.7935    1.0516   -0.7663 C   0  0  0  0  0  0  0  0  0  0  0  0
    3.4927    0.1650    0.0475 C   0  0  0  0  0  0  0  0  0  0  0  0
    2.8230   -0.9412    0.5776 C   0  0  0  0  0  0  0  0  0  0  0  0
    1.5438   -1.1919    0.3391 N   0  0  0  0  0  0  0  0  0  0  0  0
    4.9496    0.3602    0.3678 C   0  0  0  0  0  0  0  0  0  0  0  0
    5.4275    1.4841   -0.1664 F   0  0  0  0  0  0  0  0  0  0  0  0
    5.1523    0.4189    1.6851 F   0  0  0  0  0  0  0  0  0  0  0  0
    5.6872   -0.6510   -0.0939 F   0  0  0  0  0  0  0  0  0  0  0  0
   -3.0382   -0.6454   -2.3874 H   0  0  0  0  0  0  0  0  0  0  0  0
   -2.4976   -2.7398   -1.1967 H   0  0  0  0  0  0  0  0  0  0  0  0
   -4.2185   -2.5763    0.4307 H   0  0  0  0  0  0  0  0  0  0  0  0
   -2.9028   -2.1046    1.5228 H   0  0  0  0  0  0  0  0  0  0  0  0
   -5.1498   -0.4184    2.4345 H   0  0  0  0  0  0  0  0  0  0  0  0
   -5.9011    1.9315    2.1148 H   0  0  0  0  0  0  0  0  0  0  0  0
   -5.1536    3.2327    0.1410 H   0  0  0  0  0  0  0  0  0  0  0  0
   -3.6336    2.1919   -1.5471 H   0  0  0  0  0  0  0  0  0  0  0  0
    0.8350    1.4410   -1.6409 H   0  0  0  0  0  0  0  0  0  0  0  0
    3.2927    1.9229   -1.1914 H   0  0  0  0  0  0  0  0  0  0  0  0
    3.3558   -1.6482    1.2221 H   0  0  0  0  0  0  0  0  0  0  0  0
  1  2  1  0  0  0  0
  1  5  1  0  0  0  0
  2  3  2  0  0  0  0
  2 13  1  0  0  0  0
  3  4  1  0  0  0  0
  4  5  1  0  0  0  0
  4 12  1  0  0  0  0
  4 23  1  6  0  0  0
  5  6  1  0  0  0  0
  5 24  1  6  0  0  0
  6  7  1  0  0  0  0
  6 25  1  0  0  0  0
  6 26  1  0  0  0  0
  7  8  2  0  0  0  0
  7 12  1  0  0  0  0
  8  9  1  0  0  0  0
  8 27  1  0  0  0  0
  9 10  2  0  0  0  0
  9 28  1  0  0  0  0
 10 11  1  0  0  0  0
 10 29  1  0  0  0  0
 11 12  2  0  0  0  0
 11 30  1  0  0  0  0
 13 14  2  0  0  0  0
 13 18  1  0  0  0  0
 14 15  1  0  0  0  0
 14 31  1  0  0  0  0
 15 16  2  0  0  0  0
 15 32  1  0  0  0  0
 16 17  1  0  0  0  0
 16 19  1  0  0  0  0
 17 18  2  0  0  0  0
 17 33  1  0  0  0  0
 19 20  1  0  0  0  0
 19 21  1  0  0  0  0
 19 22  1  0  0  0  0
M  END
$$$$
