Title Card Required
 OpenBabel03192317413D

 56 62  0  0  1  0  0  0  0  0999 V2000
   -0.1010    0.6556   -0.3131 C   0  0  0  0  0  0  0  0  0  0  0  0
    0.2758    1.4591   -1.5726 C   0  0  0  0  0  0  0  0  0  0  0  0
    1.4467    2.4000   -1.3047 C   0  0  0  0  0  0  0  0  0  0  0  0
    1.1141    3.3695   -0.1710 C   0  0  0  0  0  0  0  0  0  0  0  0
    0.7461    2.6126    1.1045 C   0  0  0  0  0  0  0  0  0  0  0  0
   -0.3845    1.6084    0.8695 C   0  0  0  0  0  0  0  0  0  0  0  0
   -1.5303   -1.2157    0.2465 O   0  0  0  0  0  0  0  0  0  0  0  0
   -1.3415   -0.1595   -0.5835 C   0  0  0  0  0  0  0  0  0  0  0  0
   -2.2375    0.0801   -1.4698 N   0  0  0  0  0  0  0  0  0  0  0  0
   -3.3031   -0.8950   -1.2397 C   0  0  1  0  0  0  0  0  0  0  0  0
   -2.7190   -1.8908   -0.1889 C   0  0  2  0  0  0  0  0  0  0  0  0
   -3.7367   -2.0198    0.9508 C   0  0  0  0  0  0  0  0  0  0  0  0
   -4.7119   -0.8922    0.7077 C   0  0  0  0  0  0  0  0  0  0  0  0
   -5.7447   -0.4498    1.5328 C   0  0  0  0  0  0  0  0  0  0  0  0
   -6.5457    0.6096    1.1073 C   0  0  0  0  0  0  0  0  0  0  0  0
   -6.3150    1.2245   -0.1270 C   0  0  0  0  0  0  0  0  0  0  0  0
   -5.2816    0.7837   -0.9529 C   0  0  0  0  0  0  0  0  0  0  0  0
   -4.4911   -0.2823   -0.5287 C   0  0  0  0  0  0  0  0  0  0  0  0
    1.3986   -1.1064   -0.9963 O   0  0  0  0  0  0  0  0  0  0  0  0
    1.0123   -0.3042    0.0285 C   0  0  0  0  0  0  0  0  0  0  0  0
    1.6247   -0.4228    1.1476 N   0  0  0  0  0  0  0  0  0  0  0  0
    2.6824   -1.4078    0.9324 C   0  0  1  0  0  0  0  0  0  0  0  0
    2.4172   -1.9826   -0.4946 C   0  0  2  0  0  0  0  0  0  0  0  0
    3.7163   -1.8475   -1.3009 C   0  0  0  0  0  0  0  0  0  0  0  0
    4.5893   -0.9470   -0.4571 C   0  0  0  0  0  0  0  0  0  0  0  0
    5.8099   -0.3597   -0.7882 C   0  0  0  0  0  0  0  0  0  0  0  0
    6.4577    0.4367    0.1561 C   0  0  0  0  0  0  0  0  0  0  0  0
    5.8933    0.6474    1.4181 C   0  0  0  0  0  0  0  0  0  0  0  0
    4.6722    0.0626    1.7500 C   0  0  0  0  0  0  0  0  0  0  0  0
    4.0330   -0.7379    0.8065 C   0  0  0  0  0  0  0  0  0  0  0  0
    0.4965    0.7597   -2.3902 H   0  0  0  0  0  0  0  0  0  0  0  0
   -0.6152    2.0311   -1.8716 H   0  0  0  0  0  0  0  0  0  0  0  0
    2.3460    1.8150   -1.0382 H   0  0  0  0  0  0  0  0  0  0  0  0
    1.6930    2.9513   -2.2245 H   0  0  0  0  0  0  0  0  0  0  0  0
    1.9614    4.0449    0.0204 H   0  0  0  0  0  0  0  0  0  0  0  0
    0.2650    4.0033   -0.4825 H   0  0  0  0  0  0  0  0  0  0  0  0
    1.6278    2.0723    1.4796 H   0  0  0  0  0  0  0  0  0  0  0  0
    0.4386    3.3169    1.8924 H   0  0  0  0  0  0  0  0  0  0  0  0
   -1.3164    2.1458    0.6266 H   0  0  0  0  0  0  0  0  0  0  0  0
   -0.5655    1.0109    1.7740 H   0  0  0  0  0  0  0  0  0  0  0  0
   -3.5921   -1.3704   -2.1888 H   0  0  0  0  0  0  0  0  0  0  0  0
   -2.4145   -2.8604   -0.6073 H   0  0  0  0  0  0  0  0  0  0  0  0
   -4.2441   -2.9962    0.9116 H   0  0  0  0  0  0  0  0  0  0  0  0
   -3.2299   -1.9495    1.9240 H   0  0  0  0  0  0  0  0  0  0  0  0
   -5.9219   -0.9219    2.5013 H   0  0  0  0  0  0  0  0  0  0  0  0
   -7.3558    0.9655    1.7460 H   0  0  0  0  0  0  0  0  0  0  0  0
   -6.9448    2.0581   -0.4417 H   0  0  0  0  0  0  0  0  0  0  0  0
   -5.0835    1.2679   -1.9108 H   0  0  0  0  0  0  0  0  0  0  0  0
    2.6641   -2.1655    1.7296 H   0  0  0  0  0  0  0  0  0  0  0  0
    2.0109   -3.0034   -0.5005 H   0  0  0  0  0  0  0  0  0  0  0  0
    4.1890   -2.8313   -1.4466 H   0  0  0  0  0  0  0  0  0  0  0  0
    3.5059   -1.4328   -2.2973 H   0  0  0  0  0  0  0  0  0  0  0  0
    6.2520   -0.5148   -1.7746 H   0  0  0  0  0  0  0  0  0  0  0  0
    7.4113    0.9048   -0.0934 H   0  0  0  0  0  0  0  0  0  0  0  0
    6.4096    1.2785    2.1430 H   0  0  0  0  0  0  0  0  0  0  0  0
    4.2133    0.2341    2.7256 H   0  0  0  0  0  0  0  0  0  0  0  0
  1  2  1  0  0  0  0
  1  6  1  0  0  0  0
  1  8  1  0  0  0  0
  1 20  1  0  0  0  0
  2  3  1  0  0  0  0
  2 31  1  0  0  0  0
  2 32  1  0  0  0  0
  3  4  1  0  0  0  0
  3 33  1  0  0  0  0
  3 34  1  0  0  0  0
  4  5  1  0  0  0  0
  4 35  1  0  0  0  0
  4 36  1  0  0  0  0
  5  6  1  0  0  0  0
  5 37  1  0  0  0  0
  5 38  1  0  0  0  0
  6 39  1  0  0  0  0
  6 40  1  0  0  0  0
  7  8  1  0  0  0  0
  7 11  1  0  0  0  0
  8  9  2  0  0  0  0
  9 10  1  0  0  0  0
 10 11  1  0  0  0  0
 10 18  1  0  0  0  0
 10 41  1  6  0  0  0
 11 12  1  0  0  0  0
 11 42  1  6  0  0  0
 12 13  1  0  0  0  0
 12 43  1  0  0  0  0
 12 44  1  0  0  0  0
 13 14  2  0  0  0  0
 13 18  1  0  0  0  0
 14 15  1  0  0  0  0
 14 45  1  0  0  0  0
 15 16  2  0  0  0  0
 15 46  1  0  0  0  0
 16 17  1  0  0  0  0
 16 47  1  0  0  0  0
 17 18  2  0  0  0  0
 17 48  1  0  0  0  0
 19 20  1  0  0  0  0
 19 23  1  0  0  0  0
 20 21  2  0  0  0  0
 21 22  1  0  0  0  0
 22 23  1  0  0  0  0
 22 30  1  0  0  0  0
 22 49  1  1  0  0  0
 23 24  1  0  0  0  0
 23 50  1  1  0  0  0
 24 25  1  0  0  0  0
 24 51  1  0  0  0  0
 24 52  1  0  0  0  0
 25 26  2  0  0  0  0
 25 30  1  0  0  0  0
 26 27  1  0  0  0  0
 26 53  1  0  0  0  0
 27 28  2  0  0  0  0
 27 54  1  0  0  0  0
 28 29  1  0  0  0  0
 28 55  1  0  0  0  0
 29 30  2  0  0  0  0
 29 56  1  0  0  0  0
M  END
$$$$
