Title Card Required
 OpenBabel03192317493D

 83 89  0  0  1  0  0  0  0  0999 V2000
    0.3592   -0.1412   -2.6283 C   0  0  0  0  0  0  0  0  0  0  0  0
    0.7544   -1.3237   -1.7619 C   0  0  0  0  0  0  0  0  0  0  0  0
    1.6119   -1.1805   -0.6563 C   0  0  0  0  0  0  0  0  0  0  0  0
    1.9461   -2.3243    0.0807 C   0  0  0  0  0  0  0  0  0  0  0  0
    1.4242   -3.5722   -0.2552 C   0  0  0  0  0  0  0  0  0  0  0  0
    0.5744   -3.7028   -1.3517 C   0  0  0  0  0  0  0  0  0  0  0  0
    0.2558   -2.5809   -2.1128 C   0  0  0  0  0  0  0  0  0  0  0  0
    0.8982    0.0637   -3.6952 O   0  0  0  0  0  0  0  0  0  0  0  0
   -0.6357    0.6377   -2.1270 N   0  0  0  0  0  0  0  0  0  0  0  0
   -1.3289    0.3874   -0.8826 C   0  0  1  0  0  0  0  0  0  0  0  0
   -2.5770    2.5567   -1.2752 N   0  0  2  0  0  0  0  0  0  0  0  0
   -1.7968    1.7455   -0.3321 C   0  0  1  0  0  0  0  0  0  0  0  0
   -2.4882    1.7013    1.0427 C   0  0  0  0  0  0  0  0  0  0  0  0
   -3.4121    2.9295    1.1214 C   0  0  1  0  0  0  0  0  0  0  0  0
   -2.6813    4.1966    0.6125 C   0  0  2  0  0  0  0  0  0  0  0  0
   -2.3706    3.9585   -0.9054 C   0  0  0  0  0  0  0  0  0  0  0  0
   -4.5968    2.6782    0.1823 C   0  0  0  0  0  0  0  0  0  0  0  0
   -4.0145    2.2657   -1.1945 C   0  0  0  0  0  0  0  0  0  0  0  0
   -1.4553    4.5242    1.4174 C   0  0  0  0  0  0  0  0  0  0  0  0
   -1.3315    5.5871    2.2114 C   0  0  0  0  0  0  0  0  0  0  0  0
   -4.0918   -2.9282   -1.4180 N   0  0  0  0  0  0  0  0  0  0  0  0
   -3.9778   -1.9698   -2.3032 C   0  0  0  0  0  0  0  0  0  0  0  0
   -3.0993   -0.8724   -2.1555 C   0  0  0  0  0  0  0  0  0  0  0  0
   -2.3353   -0.7466   -1.0160 C   0  0  0  0  0  0  0  0  0  0  0  0
   -2.4250   -1.7825   -0.0356 C   0  0  0  0  0  0  0  0  0  0  0  0
   -1.6264   -1.8226    1.1453 C   0  0  0  0  0  0  0  0  0  0  0  0
   -1.7036   -2.9003    2.0019 C   0  0  0  0  0  0  0  0  0  0  0  0
   -2.6133   -3.9656    1.7402 C   0  0  0  0  0  0  0  0  0  0  0  0
   -3.3992   -3.9386    0.6246 C   0  0  0  0  0  0  0  0  0  0  0  0
   -3.3214   -2.8593   -0.3050 C   0  0  0  0  0  0  0  0  0  0  0  0
   -0.9589   -3.0459    3.1149 O   0  0  0  0  0  0  0  0  0  0  0  0
   -0.0207   -2.0451    3.4176 C   0  0  0  0  0  0  0  0  0  0  0  0
    2.1534    0.5336   -0.1890 P   0  0  0  0  0  0  0  0  0  0  0  0
    2.7093    0.2887    1.5516 C   0  0  0  0  0  0  0  0  0  0  0  0
    3.9244   -0.3076    1.9191 C   0  0  0  0  0  0  0  0  0  0  0  0
    4.2455   -0.4854    3.2630 C   0  0  0  0  0  0  0  0  0  0  0  0
    3.3618   -0.0639    4.2589 C   0  0  0  0  0  0  0  0  0  0  0  0
    2.1592    0.5450    3.9065 C   0  0  0  0  0  0  0  0  0  0  0  0
    1.8393    0.7227    2.5592 C   0  0  0  0  0  0  0  0  0  0  0  0
    3.7458    0.7041   -1.0968 C   0  0  0  0  0  0  0  0  0  0  0  0
    3.9719    0.0641   -2.3211 C   0  0  0  0  0  0  0  0  0  0  0  0
    5.1482    0.3084   -3.0310 C   0  0  0  0  0  0  0  0  0  0  0  0
    6.1061    1.1886   -2.5323 C   0  0  0  0  0  0  0  0  0  0  0  0
    5.8797    1.8396   -1.3190 C   0  0  0  0  0  0  0  0  0  0  0  0
    4.7042    1.6059   -0.6109 C   0  0  0  0  0  0  0  0  0  0  0  0
   -3.7537    3.0923    2.1532 H   0  0  0  0  0  0  0  0  0  0  0  0
    2.6120   -2.2414    0.9409 H   0  0  0  0  0  0  0  0  0  0  0  0
    1.6819   -4.4451    0.3469 H   0  0  0  0  0  0  0  0  0  0  0  0
    0.1563   -4.6759   -1.6128 H   0  0  0  0  0  0  0  0  0  0  0  0
   -0.4096   -2.6673   -2.9747 H   0  0  0  0  0  0  0  0  0  0  0  0
   -0.9371    1.4418   -2.6730 H   0  0  0  0  0  0  0  0  0  0  0  0
   -0.5815    0.0633   -0.1501 H   0  0  0  0  0  0  0  0  0  0  0  0
   -0.8402    2.2828   -0.2234 H   0  0  0  0  0  0  0  0  0  0  0  0
   -3.0925    0.7855    1.1572 H   0  0  0  0  0  0  0  0  0  0  0  0
   -1.7418    1.6977    1.8526 H   0  0  0  0  0  0  0  0  0  0  0  0
   -3.3807    5.0418    0.7120 H   0  0  0  0  0  0  0  0  0  0  0  0
   -3.0248    4.5794   -1.5346 H   0  0  0  0  0  0  0  0  0  0  0  0
   -1.3324    4.2423   -1.1353 H   0  0  0  0  0  0  0  0  0  0  0  0
   -5.2098    3.5894    0.1045 H   0  0  0  0  0  0  0  0  0  0  0  0
   -5.2436    1.8842    0.5837 H   0  0  0  0  0  0  0  0  0  0  0  0
   -4.5152    2.7950   -2.0184 H   0  0  0  0  0  0  0  0  0  0  0  0
   -4.1644    1.1948   -1.3657 H   0  0  0  0  0  0  0  0  0  0  0  0
   -0.6082    3.8319    1.3299 H   0  0  0  0  0  0  0  0  0  0  0  0
   -0.4158    5.7768    2.7742 H   0  0  0  0  0  0  0  0  0  0  0  0
   -2.1460    6.3090    2.3205 H   0  0  0  0  0  0  0  0  0  0  0  0
   -4.5974   -2.0474   -3.2029 H   0  0  0  0  0  0  0  0  0  0  0  0
   -3.0154   -0.1322   -2.9537 H   0  0  0  0  0  0  0  0  0  0  0  0
   -0.9337   -1.0130    1.3632 H   0  0  0  0  0  0  0  0  0  0  0  0
   -2.6485   -4.7896    2.4533 H   0  0  0  0  0  0  0  0  0  0  0  0
   -4.0997   -4.7419    0.3952 H   0  0  0  0  0  0  0  0  0  0  0  0
    0.7180   -1.9244    2.6074 H   0  0  0  0  0  0  0  0  0  0  0  0
   -0.5130   -1.0726    3.5916 H   0  0  0  0  0  0  0  0  0  0  0  0
    0.4947   -2.3553    4.3335 H   0  0  0  0  0  0  0  0  0  0  0  0
    4.6213   -0.6349    1.1437 H   0  0  0  0  0  0  0  0  0  0  0  0
    5.1917   -0.9554    3.5360 H   0  0  0  0  0  0  0  0  0  0  0  0
    3.6185   -0.2002    5.3106 H   0  0  0  0  0  0  0  0  0  0  0  0
    1.4722    0.8931    4.6800 H   0  0  0  0  0  0  0  0  0  0  0  0
    0.9030    1.2165    2.2818 H   0  0  0  0  0  0  0  0  0  0  0  0
    3.2217   -0.6087   -2.7411 H   0  0  0  0  0  0  0  0  0  0  0  0
    5.3108   -0.1949   -3.9852 H   0  0  0  0  0  0  0  0  0  0  0  0
    7.0251    1.3745   -3.0902 H   0  0  0  0  0  0  0  0  0  0  0  0
    6.6194    2.5378   -0.9236 H   0  0  0  0  0  0  0  0  0  0  0  0
    4.5332    2.1256    0.3355 H   0  0  0  0  0  0  0  0  0  0  0  0
  1  2  1  0  0  0  0
  1  8  2  0  0  0  0
  1  9  1  0  0  0  0
  2  3  2  0  0  0  0
  2  7  1  0  0  0  0
  3  4  1  0  0  0  0
  3 33  1  0  0  0  0
  4  5  2  0  0  0  0
  4 47  1  0  0  0  0
  5  6  1  0  0  0  0
  5 48  1  0  0  0  0
  6  7  2  0  0  0  0
  6 49  1  0  0  0  0
  7 50  1  0  0  0  0
  9 10  1  0  0  0  0
  9 51  1  0  0  0  0
 10 12  1  0  0  0  0
 10 24  1  0  0  0  0
 10 52  1  1  0  0  0
 11 12  1  0  0  0  0
 11 16  1  1  0  0  0
 11 18  1  0  0  0  0
 12 13  1  0  0  0  0
 12 53  1  1  0  0  0
 13 14  1  0  0  0  0
 13 54  1  0  0  0  0
 13 55  1  0  0  0  0
 14 15  1  0  0  0  0
 14 17  1  0  0  0  0
 14 46  1  1  0  0  0
 15 16  1  0  0  0  0
 15 19  1  0  0  0  0
 15 56  1  1  0  0  0
 16 57  1  0  0  0  0
 16 58  1  0  0  0  0
 17 18  1  0  0  0  0
 17 59  1  0  0  0  0
 17 60  1  0  0  0  0
 18 61  1  0  0  0  0
 18 62  1  0  0  0  0
 19 20  2  0  0  0  0
 19 63  1  0  0  0  0
 20 64  1  0  0  0  0
 20 65  1  0  0  0  0
 21 22  2  0  0  0  0
 21 30  1  0  0  0  0
 22 23  1  0  0  0  0
 22 66  1  0  0  0  0
 23 24  2  0  0  0  0
 23 67  1  0  0  0  0
 24 25  1  0  0  0  0
 25 26  2  0  0  0  0
 25 30  1  0  0  0  0
 26 27  1  0  0  0  0
 26 68  1  0  0  0  0
 27 28  2  0  0  0  0
 27 31  1  0  0  0  0
 28 29  1  0  0  0  0
 28 69  1  0  0  0  0
 29 30  2  0  0  0  0
 29 70  1  0  0  0  0
 31 32  1  0  0  0  0
 32 71  1  0  0  0  0
 32 72  1  0  0  0  0
 32 73  1  0  0  0  0
 33 34  1  0  0  0  0
 33 40  1  0  0  0  0
 34 35  2  0  0  0  0
 34 39  1  0  0  0  0
 35 36  1  0  0  0  0
 35 74  1  0  0  0  0
 36 37  2  0  0  0  0
 36 75  1  0  0  0  0
 37 38  1  0  0  0  0
 37 76  1  0  0  0  0
 38 39  2  0  0  0  0
 38 77  1  0  0  0  0
 39 78  1  0  0  0  0
 40 41  2  0  0  0  0
 40 45  1  0  0  0  0
 41 42  1  0  0  0  0
 41 79  1  0  0  0  0
 42 43  2  0  0  0  0
 42 80  1  0  0  0  0
 43 44  1  0  0  0  0
 43 81  1  0  0  0  0
 44 45  2  0  0  0  0
 44 82  1  0  0  0  0
 45 83  1  0  0  0  0
M  END
$$$$
