Title Card Required
 OpenBabel03192317513D

 96103  0  0  0  0  0  0  0  0999 V2000
   -0.7955   -3.0436    3.6092 O   0  0  0  0  0  0  0  0  0  0  0  0
   -1.7779   -3.4368    2.6652 C   0  0  0  0  0  0  0  0  0  0  0  0
   -1.2786   -3.0951    1.3842 O   0  0  0  0  0  0  0  0  0  0  0  0
   -0.3726   -2.1061    1.6163 C   0  0  0  0  0  0  0  0  0  0  0  0
   -0.0666   -2.0814    2.9795 C   0  0  0  0  0  0  0  0  0  0  0  0
    0.2007   -1.2349    0.7143 C   0  0  0  0  0  0  0  0  0  0  0  0
    1.1590   -0.3165    1.2267 C   0  0  0  0  0  0  0  0  0  0  0  0
    1.4736   -0.3187    2.5856 C   0  0  0  0  0  0  0  0  0  0  0  0
    0.8600   -1.2025    3.4936 C   0  0  0  0  0  0  0  0  0  0  0  0
    0.8016   -3.0263   -3.6200 O   0  0  0  0  0  0  0  0  0  0  0  0
    1.7835   -3.4221   -2.6764 C   0  0  0  0  0  0  0  0  0  0  0  0
    1.2818   -3.0870   -1.3946 O   0  0  0  0  0  0  0  0  0  0  0  0
    0.3745   -2.0984   -1.6235 C   0  0  0  0  0  0  0  0  0  0  0  0
    0.0705   -2.0679   -2.9871 C   0  0  0  0  0  0  0  0  0  0  0  0
   -0.2010   -1.2320   -0.7184 C   0  0  0  0  0  0  0  0  0  0  0  0
   -1.1591   -0.3119   -1.2280 C   0  0  0  0  0  0  0  0  0  0  0  0
   -1.4716   -0.3082   -2.5873 C   0  0  0  0  0  0  0  0  0  0  0  0
   -0.8560   -1.1874   -3.4985 C   0  0  0  0  0  0  0  0  0  0  0  0
   -1.8650    0.8854   -0.0046 P   0  0  0  0  0  0  0  0  0  0  0  0
   -2.9205    1.9192   -1.1072 C   0  0  0  0  0  0  0  0  0  0  0  0
   -4.2887    1.7245   -1.3043 C   0  0  0  0  0  0  0  0  0  0  0  0
   -5.0133    2.5554   -2.1687 C   0  0  0  0  0  0  0  0  0  0  0  0
   -4.3371    3.5751   -2.8416 C   0  0  0  0  0  0  0  0  0  0  0  0
   -2.9660    3.7947   -2.6607 C   0  0  0  0  0  0  0  0  0  0  0  0
   -2.2726    2.9661   -1.7773 C   0  0  0  0  0  0  0  0  0  0  0  0
   -6.4973    2.3655   -2.3494 C   0  0  0  0  0  0  0  0  0  0  0  0
   -2.2615    4.8928   -3.4148 C   0  0  0  0  0  0  0  0  0  0  0  0
   -3.1242   -0.1718    0.8380 C   0  0  0  0  0  0  0  0  0  0  0  0
   -3.6136   -1.3699    0.3165 C   0  0  0  0  0  0  0  0  0  0  0  0
   -4.5837   -2.1105    1.0049 C   0  0  0  0  0  0  0  0  0  0  0  0
   -5.0667   -1.6182    2.2193 C   0  0  0  0  0  0  0  0  0  0  0  0
   -4.5896   -0.4209    2.7704 C   0  0  0  0  0  0  0  0  0  0  0  0
   -3.6066    0.2834    2.0735 C   0  0  0  0  0  0  0  0  0  0  0  0
   -5.0618   -3.4238    0.4425 C   0  0  0  0  0  0  0  0  0  0  0  0
   -5.1376    0.0918    4.0770 C   0  0  0  0  0  0  0  0  0  0  0  0
    1.8645    0.8843    0.0063 P   0  0  0  0  0  0  0  0  0  0  0  0
    2.9168    1.9177    1.1123 C   0  0  0  0  0  0  0  0  0  0  0  0
    4.2875    1.7409    1.2934 C   0  0  0  0  0  0  0  0  0  0  0  0
    5.0101    2.5753    2.1597 C   0  0  0  0  0  0  0  0  0  0  0  0
    4.3280    3.5780    2.8471 C   0  0  0  0  0  0  0  0  0  0  0  0
    2.9500    3.7798    2.6820 C   0  0  0  0  0  0  0  0  0  0  0  0
    2.2600    2.9504    1.8001 C   0  0  0  0  0  0  0  0  0  0  0  0
    6.4953    2.3837    2.3281 C   0  0  0  0  0  0  0  0  0  0  0  0
    2.2450    4.8710    3.4453 C   0  0  0  0  0  0  0  0  0  0  0  0
    3.1265   -0.1695   -0.8364 C   0  0  0  0  0  0  0  0  0  0  0  0
    3.6190   -1.3661   -0.3146 C   0  0  0  0  0  0  0  0  0  0  0  0
    4.5911   -2.1044   -1.0027 C   0  0  0  0  0  0  0  0  0  0  0  0
    5.0727   -1.6112   -2.2173 C   0  0  0  0  0  0  0  0  0  0  0  0
    4.5923   -0.4154   -2.7690 C   0  0  0  0  0  0  0  0  0  0  0  0
    3.6074    0.2865   -2.0723 C   0  0  0  0  0  0  0  0  0  0  0  0
    5.0730   -3.4161   -0.4398 C   0  0  0  0  0  0  0  0  0  0  0  0
    5.1386    0.0979   -4.0760 C   0  0  0  0  0  0  0  0  0  0  0  0
   -1.9330   -4.5208    2.7236 H   0  0  0  0  0  0  0  0  0  0  0  0
   -2.7152   -2.8786    2.8494 H   0  0  0  0  0  0  0  0  0  0  0  0
    2.2101    0.3905    2.9659 H   0  0  0  0  0  0  0  0  0  0  0  0
    1.1019   -1.1939    4.5557 H   0  0  0  0  0  0  0  0  0  0  0  0
    1.9406   -4.5055   -2.7395 H   0  0  0  0  0  0  0  0  0  0  0  0
    2.7201   -2.8613   -2.8568 H   0  0  0  0  0  0  0  0  0  0  0  0
   -2.2077    0.4025   -2.9656 H   0  0  0  0  0  0  0  0  0  0  0  0
   -1.0964   -1.1740   -4.5609 H   0  0  0  0  0  0  0  0  0  0  0  0
   -4.8044    0.9133   -0.7840 H   0  0  0  0  0  0  0  0  0  0  0  0
   -4.8948    4.2235   -3.5241 H   0  0  0  0  0  0  0  0  0  0  0  0
   -1.2020    3.1260   -1.6126 H   0  0  0  0  0  0  0  0  0  0  0  0
   -7.0602    3.0040   -1.6508 H   0  0  0  0  0  0  0  0  0  0  0  0
   -6.8132    2.6312   -3.3676 H   0  0  0  0  0  0  0  0  0  0  0  0
   -6.7905    1.3251   -2.1555 H   0  0  0  0  0  0  0  0  0  0  0  0
   -2.1210    4.6146   -4.4706 H   0  0  0  0  0  0  0  0  0  0  0  0
   -2.8446    5.8245   -3.3960 H   0  0  0  0  0  0  0  0  0  0  0  0
   -1.2710    5.0960   -2.9873 H   0  0  0  0  0  0  0  0  0  0  0  0
   -3.2270   -1.7473   -0.6341 H   0  0  0  0  0  0  0  0  0  0  0  0
   -5.8272   -2.1881    2.7617 H   0  0  0  0  0  0  0  0  0  0  0  0
   -3.2043    1.2082    2.4972 H   0  0  0  0  0  0  0  0  0  0  0  0
   -4.2231   -4.1314    0.3540 H   0  0  0  0  0  0  0  0  0  0  0  0
   -5.8331   -3.8785    1.0779 H   0  0  0  0  0  0  0  0  0  0  0  0
   -5.4808   -3.2934   -0.5659 H   0  0  0  0  0  0  0  0  0  0  0  0
   -6.1280    0.5503    3.9320 H   0  0  0  0  0  0  0  0  0  0  0  0
   -5.2560   -0.7212    4.8069 H   0  0  0  0  0  0  0  0  0  0  0  0
   -4.4772    0.8526    4.5129 H   0  0  0  0  0  0  0  0  0  0  0  0
    4.8098    0.9416    0.7609 H   0  0  0  0  0  0  0  0  0  0  0  0
    4.8831    4.2283    3.5296 H   0  0  0  0  0  0  0  0  0  0  0  0
    1.1856    3.0960    1.6479 H   0  0  0  0  0  0  0  0  0  0  0  0
    7.0330    2.6711    1.4120 H   0  0  0  0  0  0  0  0  0  0  0  0
    6.8864    2.9917    3.1544 H   0  0  0  0  0  0  0  0  0  0  0  0
    6.7366    1.3304    2.5305 H   0  0  0  0  0  0  0  0  0  0  0  0
    2.2772    4.6762    4.5278 H   0  0  0  0  0  0  0  0  0  0  0  0
    2.7240    5.8463    3.2742 H   0  0  0  0  0  0  0  0  0  0  0  0
    1.1917    4.9489    3.1464 H   0  0  0  0  0  0  0  0  0  0  0  0
    3.2334   -1.7440    0.6362 H   0  0  0  0  0  0  0  0  0  0  0  0
    5.8348   -2.1792   -2.7595 H   0  0  0  0  0  0  0  0  0  0  0  0
    3.2025    1.2101   -2.4963 H   0  0  0  0  0  0  0  0  0  0  0  0
    4.2364   -4.1261   -0.3511 H   0  0  0  0  0  0  0  0  0  0  0  0
    5.8455   -3.8688   -1.0752 H   0  0  0  0  0  0  0  0  0  0  0  0
    5.4917   -3.2841    0.5685 H   0  0  0  0  0  0  0  0  0  0  0  0
    6.1293    0.5560   -3.9322 H   0  0  0  0  0  0  0  0  0  0  0  0
    5.2557   -0.7148   -4.8065 H   0  0  0  0  0  0  0  0  0  0  0  0
    4.4777    0.8590   -4.5106 H   0  0  0  0  0  0  0  0  0  0  0  0
  1  2  1  0  0  0  0
  1  5  1  0  0  0  0
  2  3  1  0  0  0  0
  2 53  1  0  0  0  0
  2 54  1  0  0  0  0
  3  4  1  0  0  0  0
  4  5  2  0  0  0  0
  4  6  1  0  0  0  0
  5  9  1  0  0  0  0
  6  7  2  0  0  0  0
  6 15  1  0  0  0  0
  7  8  1  0  0  0  0
  7 36  1  0  0  0  0
  8  9  2  0  0  0  0
  8 55  1  0  0  0  0
  9 56  1  0  0  0  0
 10 11  1  0  0  0  0
 10 14  1  0  0  0  0
 11 12  1  0  0  0  0
 11 57  1  0  0  0  0
 11 58  1  0  0  0  0
 12 13  1  0  0  0  0
 13 14  2  0  0  0  0
 13 15  1  0  0  0  0
 14 18  1  0  0  0  0
 15 16  2  0  0  0  0
 16 17  1  0  0  0  0
 16 19  1  0  0  0  0
 17 18  2  0  0  0  0
 17 59  1  0  0  0  0
 18 60  1  0  0  0  0
 19 20  1  0  0  0  0
 19 28  1  0  0  0  0
 20 21  2  0  0  0  0
 20 25  1  0  0  0  0
 21 22  1  0  0  0  0
 21 61  1  0  0  0  0
 22 23  2  0  0  0  0
 22 26  1  0  0  0  0
 23 24  1  0  0  0  0
 23 62  1  0  0  0  0
 24 25  2  0  0  0  0
 24 27  1  0  0  0  0
 25 63  1  0  0  0  0
 26 64  1  0  0  0  0
 26 65  1  0  0  0  0
 26 66  1  0  0  0  0
 27 67  1  0  0  0  0
 27 68  1  0  0  0  0
 27 69  1  0  0  0  0
 28 29  2  0  0  0  0
 28 33  1  0  0  0  0
 29 30  1  0  0  0  0
 29 70  1  0  0  0  0
 30 31  2  0  0  0  0
 30 34  1  0  0  0  0
 31 32  1  0  0  0  0
 31 71  1  0  0  0  0
 32 33  2  0  0  0  0
 32 35  1  0  0  0  0
 33 72  1  0  0  0  0
 34 73  1  0  0  0  0
 34 74  1  0  0  0  0
 34 75  1  0  0  0  0
 35 76  1  0  0  0  0
 35 77  1  0  0  0  0
 35 78  1  0  0  0  0
 36 37  1  0  0  0  0
 36 45  1  0  0  0  0
 37 38  2  0  0  0  0
 37 42  1  0  0  0  0
 38 39  1  0  0  0  0
 38 79  1  0  0  0  0
 39 40  2  0  0  0  0
 39 43  1  0  0  0  0
 40 41  1  0  0  0  0
 40 80  1  0  0  0  0
 41 42  2  0  0  0  0
 41 44  1  0  0  0  0
 42 81  1  0  0  0  0
 43 82  1  0  0  0  0
 43 83  1  0  0  0  0
 43 84  1  0  0  0  0
 44 85  1  0  0  0  0
 44 86  1  0  0  0  0
 44 87  1  0  0  0  0
 45 46  2  0  0  0  0
 45 50  1  0  0  0  0
 46 47  1  0  0  0  0
 46 88  1  0  0  0  0
 47 48  2  0  0  0  0
 47 51  1  0  0  0  0
 48 49  1  0  0  0  0
 48 89  1  0  0  0  0
 49 50  2  0  0  0  0
 49 52  1  0  0  0  0
 50 90  1  0  0  0  0
 51 91  1  0  0  0  0
 51 92  1  0  0  0  0
 51 93  1  0  0  0  0
 52 94  1  0  0  0  0
 52 95  1  0  0  0  0
 52 96  1  0  0  0  0
M  END
$$$$
