Title Card Required
 OpenBabel03192317443D

184191  0  0  0  0  0  0  0  0999 V2000
    1.0750   -3.7239   -2.9341 O   0  0  0  0  0  0  0  0  0  0  0  0
    2.1430   -3.8505   -2.0047 C   0  0  0  0  0  0  0  0  0  0  0  0
    1.6030   -3.5831   -0.7230 O   0  0  0  0  0  0  0  0  0  0  0  0
    0.4662   -2.8678   -0.9577 C   0  0  0  0  0  0  0  0  0  0  0  0
    0.1396   -2.9606   -2.3061 C   0  0  0  0  0  0  0  0  0  0  0  0
   -0.2638   -2.1134   -0.0587 C   0  0  0  0  0  0  0  0  0  0  0  0
   -1.4054   -1.4511   -0.5651 C   0  0  0  0  0  0  0  0  0  0  0  0
   -1.7516   -1.5872   -1.9138 C   0  0  0  0  0  0  0  0  0  0  0  0
   -0.9823   -2.3360   -2.8174 C   0  0  0  0  0  0  0  0  0  0  0  0
   -0.6589   -2.8333    4.6175 O   0  0  0  0  0  0  0  0  0  0  0  0
   -1.8370   -3.1426    3.8954 C   0  0  0  0  0  0  0  0  0  0  0  0
   -1.4873   -3.1631    2.5211 O   0  0  0  0  0  0  0  0  0  0  0  0
   -0.3448   -2.4199    2.4372 C   0  0  0  0  0  0  0  0  0  0  0  0
    0.1589   -2.2174    3.7194 C   0  0  0  0  0  0  0  0  0  0  0  0
    0.2711   -1.9092    1.3112 C   0  0  0  0  0  0  0  0  0  0  0  0
    1.4433   -1.1397    1.5197 C   0  0  0  0  0  0  0  0  0  0  0  0
    1.9503   -0.9610    2.8115 C   0  0  0  0  0  0  0  0  0  0  0  0
    1.3223   -1.5065    3.9413 C   0  0  0  0  0  0  0  0  0  0  0  0
    2.1405   -0.2590    0.0495 P   0  0  0  0  0  0  0  0  0  0  0  0
    2.5926    1.3422    0.8341 C   0  0  0  0  0  0  0  0  0  0  0  0
    1.5561    2.0134    1.4817 C   0  0  0  0  0  0  0  0  0  0  0  0
    1.7099    3.2892    2.0312 C   0  0  0  0  0  0  0  0  0  0  0  0
    2.9844    3.8922    1.8979 C   0  0  0  0  0  0  0  0  0  0  0  0
    4.0195    3.2913    1.1420 C   0  0  0  0  0  0  0  0  0  0  0  0
    3.8043    1.9995    0.6467 C   0  0  0  0  0  0  0  0  0  0  0  0
    3.2471    5.1239    2.4495 O   0  0  0  0  0  0  0  0  0  0  0  0
    3.5161    5.1856    3.8321 C   0  0  0  0  0  0  0  0  0  0  0  0
    5.3229    4.0400    0.8043 C   0  0  0  0  0  0  0  0  0  0  0  0
    6.1547    4.3397    2.0617 C   0  0  0  0  0  0  0  0  0  0  0  0
    6.2102    3.2144   -0.1380 C   0  0  0  0  0  0  0  0  0  0  0  0
    4.9808    5.3499    0.0706 C   0  0  0  0  0  0  0  0  0  0  0  0
    0.4881    3.9337    2.7204 C   0  0  0  0  0  0  0  0  0  0  0  0
   -0.8216    3.3807    2.1253 C   0  0  0  0  0  0  0  0  0  0  0  0
    0.4868    3.5678    4.2161 C   0  0  0  0  0  0  0  0  0  0  0  0
    0.4262    5.4585    2.5198 C   0  0  0  0  0  0  0  0  0  0  0  0
    3.7277   -1.1313   -0.2611 C   0  0  0  0  0  0  0  0  0  0  0  0
    4.1036   -2.2734    0.4338 C   0  0  0  0  0  0  0  0  0  0  0  0
    5.2042   -3.0587    0.0584 C   0  0  0  0  0  0  0  0  0  0  0  0
    5.8975   -2.6704   -1.1042 C   0  0  0  0  0  0  0  0  0  0  0  0
    5.6269   -1.4467   -1.7699 C   0  0  0  0  0  0  0  0  0  0  0  0
    4.5162   -0.7170   -1.3442 C   0  0  0  0  0  0  0  0  0  0  0  0
    6.8654   -3.4854   -1.6397 O   0  0  0  0  0  0  0  0  0  0  0  0
    6.3402   -4.5589   -2.3894 C   0  0  0  0  0  0  0  0  0  0  0  0
    6.5628   -0.8966   -2.8628 C   0  0  0  0  0  0  0  0  0  0  0  0
    6.6373   -1.8042   -4.1030 C   0  0  0  0  0  0  0  0  0  0  0  0
    6.1004    0.4854   -3.3418 C   0  0  0  0  0  0  0  0  0  0  0  0
    7.9704   -0.7367   -2.2599 C   0  0  0  0  0  0  0  0  0  0  0  0
    5.5531   -4.2497    0.9788 C   0  0  0  0  0  0  0  0  0  0  0  0
    5.5519   -3.7454    2.4384 C   0  0  0  0  0  0  0  0  0  0  0  0
    4.4760   -5.3400    0.8433 C   0  0  0  0  0  0  0  0  0  0  0  0
    6.9445   -4.8643    0.7545 C   0  0  0  0  0  0  0  0  0  0  0  0
   -2.3740   -0.3761    0.5935 P   0  0  0  0  0  0  0  0  0  0  0  0
   -2.3543    1.2451   -0.2793 C   0  0  0  0  0  0  0  0  0  0  0  0
   -1.3330    1.6377   -1.1428 C   0  0  0  0  0  0  0  0  0  0  0  0
   -1.3253    2.8979   -1.7614 C   0  0  0  0  0  0  0  0  0  0  0  0
   -2.4199    3.7533   -1.5071 C   0  0  0  0  0  0  0  0  0  0  0  0
   -3.4065    3.4418   -0.5421 C   0  0  0  0  0  0  0  0  0  0  0  0
   -3.3414    2.1770    0.0473 C   0  0  0  0  0  0  0  0  0  0  0  0
   -2.5538    4.9066   -2.2367 O   0  0  0  0  0  0  0  0  0  0  0  0
   -3.2982    4.7278   -3.4169 C   0  0  0  0  0  0  0  0  0  0  0  0
   -4.5510    4.3689   -0.0713 C   0  0  0  0  0  0  0  0  0  0  0  0
   -4.5226    5.8099   -0.6043 C   0  0  0  0  0  0  0  0  0  0  0  0
   -5.8995    3.7392   -0.4606 C   0  0  0  0  0  0  0  0  0  0  0  0
   -4.4743    4.4885    1.4640 C   0  0  0  0  0  0  0  0  0  0  0  0
   -0.1204    3.2200   -2.6750 C   0  0  0  0  0  0  0  0  0  0  0  0
    1.1721    2.9723   -1.8723 C   0  0  0  0  0  0  0  0  0  0  0  0
   -0.1417    2.2663   -3.8823 C   0  0  0  0  0  0  0  0  0  0  0  0
   -0.0333    4.6636   -3.1936 C   0  0  0  0  0  0  0  0  0  0  0  0
   -4.0674   -1.0085    0.2148 C   0  0  0  0  0  0  0  0  0  0  0  0
   -4.4454   -2.1490    0.9145 C   0  0  0  0  0  0  0  0  0  0  0  0
   -5.6711   -2.7941    0.7033 C   0  0  0  0  0  0  0  0  0  0  0  0
   -6.5697   -2.1683   -0.1833 C   0  0  0  0  0  0  0  0  0  0  0  0
   -6.1850   -1.0708   -0.9942 C   0  0  0  0  0  0  0  0  0  0  0  0
   -4.9276   -0.5069   -0.7659 C   0  0  0  0  0  0  0  0  0  0  0  0
   -7.8648   -2.6172   -0.2825 O   0  0  0  0  0  0  0  0  0  0  0  0
   -8.6863   -2.1935    0.7841 C   0  0  0  0  0  0  0  0  0  0  0  0
   -7.0687   -0.5738   -2.1537 C   0  0  0  0  0  0  0  0  0  0  0  0
   -8.4051    0.0101   -1.6654 C   0  0  0  0  0  0  0  0  0  0  0  0
   -6.3573    0.5242   -2.9562 C   0  0  0  0  0  0  0  0  0  0  0  0
   -7.3403   -1.7471   -3.1122 C   0  0  0  0  0  0  0  0  0  0  0  0
   -5.8777   -4.1494    1.4150 C   0  0  0  0  0  0  0  0  0  0  0  0
   -5.9938   -3.9351    2.9328 C   0  0  0  0  0  0  0  0  0  0  0  0
   -7.0798   -4.9728    0.9251 C   0  0  0  0  0  0  0  0  0  0  0  0
   -4.6326   -5.0201    1.1365 C   0  0  0  0  0  0  0  0  0  0  0  0
    2.5381   -4.8734   -2.0336 H   0  0  0  0  0  0  0  0  0  0  0  0
    2.9323   -3.1057   -2.2297 H   0  0  0  0  0  0  0  0  0  0  0  0
   -2.6409   -1.0710   -2.2830 H   0  0  0  0  0  0  0  0  0  0  0  0
   -1.2443   -2.4148   -3.8716 H   0  0  0  0  0  0  0  0  0  0  0  0
   -2.2118   -4.1280    4.1977 H   0  0  0  0  0  0  0  0  0  0  0  0
   -2.5933   -2.3527    4.0651 H   0  0  0  0  0  0  0  0  0  0  0  0
    2.8468   -0.3518    2.9460 H   0  0  0  0  0  0  0  0  0  0  0  0
    1.7133   -1.3624    4.9477 H   0  0  0  0  0  0  0  0  0  0  0  0
    0.5870    1.5164    1.5491 H   0  0  0  0  0  0  0  0  0  0  0  0
    4.5959    1.4913    0.0994 H   0  0  0  0  0  0  0  0  0  0  0  0
    2.6187    5.4725    4.4013 H   0  0  0  0  0  0  0  0  0  0  0  0
    3.8940    4.2226    4.2112 H   0  0  0  0  0  0  0  0  0  0  0  0
    4.2813    5.9576    3.9952 H   0  0  0  0  0  0  0  0  0  0  0  0
    6.3203    3.4239    2.6494 H   0  0  0  0  0  0  0  0  0  0  0  0
    7.1388    4.7360    1.7673 H   0  0  0  0  0  0  0  0  0  0  0  0
    5.6771    5.0890    2.7003 H   0  0  0  0  0  0  0  0  0  0  0  0
    5.6843    2.9716   -1.0730 H   0  0  0  0  0  0  0  0  0  0  0  0
    7.1014    3.8036   -0.3985 H   0  0  0  0  0  0  0  0  0  0  0  0
    6.5519    2.2759    0.3243 H   0  0  0  0  0  0  0  0  0  0  0  0
    4.4323    5.1321   -0.8586 H   0  0  0  0  0  0  0  0  0  0  0  0
    4.3630    6.0067    0.6936 H   0  0  0  0  0  0  0  0  0  0  0  0
    5.9076    5.8817   -0.1958 H   0  0  0  0  0  0  0  0  0  0  0  0
   -0.9849    2.3182    2.3534 H   0  0  0  0  0  0  0  0  0  0  0  0
   -1.6677    3.9286    2.5642 H   0  0  0  0  0  0  0  0  0  0  0  0
   -0.8605    3.5074    1.0316 H   0  0  0  0  0  0  0  0  0  0  0  0
    1.3883    3.9096    4.7386 H   0  0  0  0  0  0  0  0  0  0  0  0
   -0.3880    4.0163    4.7127 H   0  0  0  0  0  0  0  0  0  0  0  0
    0.4267    2.4752    4.3351 H   0  0  0  0  0  0  0  0  0  0  0  0
    1.2199    6.0069    3.0348 H   0  0  0  0  0  0  0  0  0  0  0  0
    0.4936    5.7053    1.4491 H   0  0  0  0  0  0  0  0  0  0  0  0
   -0.5412    5.8283    2.8921 H   0  0  0  0  0  0  0  0  0  0  0  0
    3.4976   -2.5878    1.2824 H   0  0  0  0  0  0  0  0  0  0  0  0
    4.2319    0.1916   -1.8770 H   0  0  0  0  0  0  0  0  0  0  0  0
    5.7194   -5.2199   -1.7644 H   0  0  0  0  0  0  0  0  0  0  0  0
    5.7262   -4.1951   -3.2292 H   0  0  0  0  0  0  0  0  0  0  0  0
    7.1909   -5.1305   -2.7828 H   0  0  0  0  0  0  0  0  0  0  0  0
    5.6309   -2.0641   -4.4666 H   0  0  0  0  0  0  0  0  0  0  0  0
    7.1581   -1.2708   -4.9128 H   0  0  0  0  0  0  0  0  0  0  0  0
    7.1972   -2.7237   -3.9011 H   0  0  0  0  0  0  0  0  0  0  0  0
    6.0415    1.2048   -2.5127 H   0  0  0  0  0  0  0  0  0  0  0  0
    6.8264    0.8741   -4.0702 H   0  0  0  0  0  0  0  0  0  0  0  0
    5.1190    0.4421   -3.8376 H   0  0  0  0  0  0  0  0  0  0  0  0
    7.9480   -0.0326   -1.4143 H   0  0  0  0  0  0  0  0  0  0  0  0
    8.3582   -1.7007   -1.9069 H   0  0  0  0  0  0  0  0  0  0  0  0
    8.6603   -0.3377   -3.0198 H   0  0  0  0  0  0  0  0  0  0  0  0
    4.5689   -3.3819    2.7646 H   0  0  0  0  0  0  0  0  0  0  0  0
    5.8364   -4.5699    3.1086 H   0  0  0  0  0  0  0  0  0  0  0  0
    6.2798   -2.9306    2.5665 H   0  0  0  0  0  0  0  0  0  0  0  0
    4.6604   -6.1464    1.5699 H   0  0  0  0  0  0  0  0  0  0  0  0
    3.4700   -4.9325    1.0250 H   0  0  0  0  0  0  0  0  0  0  0  0
    4.4793   -5.7888   -0.1615 H   0  0  0  0  0  0  0  0  0  0  0  0
    7.0229   -5.4384   -0.1747 H   0  0  0  0  0  0  0  0  0  0  0  0
    7.7263   -4.0929    0.7440 H   0  0  0  0  0  0  0  0  0  0  0  0
    7.1523   -5.5567    1.5841 H   0  0  0  0  0  0  0  0  0  0  0  0
   -0.5213    0.9362   -1.3537 H   0  0  0  0  0  0  0  0  0  0  0  0
   -4.1082    1.8916    0.7724 H   0  0  0  0  0  0  0  0  0  0  0  0
   -2.8024    4.0168   -4.1004 H   0  0  0  0  0  0  0  0  0  0  0  0
   -4.3104    4.3445   -3.1976 H   0  0  0  0  0  0  0  0  0  0  0  0
   -3.3792    5.7063   -3.9083 H   0  0  0  0  0  0  0  0  0  0  0  0
   -4.7472    5.8718   -1.6756 H   0  0  0  0  0  0  0  0  0  0  0  0
   -5.2981    6.3825   -0.0727 H   0  0  0  0  0  0  0  0  0  0  0  0
   -3.5523    6.2915   -0.4309 H   0  0  0  0  0  0  0  0  0  0  0  0
   -6.0123    2.7244   -0.0489 H   0  0  0  0  0  0  0  0  0  0  0  0
   -6.7291    4.3564   -0.0819 H   0  0  0  0  0  0  0  0  0  0  0  0
   -5.9992    3.6741   -1.5550 H   0  0  0  0  0  0  0  0  0  0  0  0
   -4.5241    3.5164    1.9723 H   0  0  0  0  0  0  0  0  0  0  0  0
   -3.5359    4.9802    1.7595 H   0  0  0  0  0  0  0  0  0  0  0  0
   -5.3119    5.1020    1.8290 H   0  0  0  0  0  0  0  0  0  0  0  0
    1.2627    1.9302   -1.5401 H   0  0  0  0  0  0  0  0  0  0  0  0
    2.0468    3.1987   -2.5023 H   0  0  0  0  0  0  0  0  0  0  0  0
    1.2170    3.6167   -0.9794 H   0  0  0  0  0  0  0  0  0  0  0  0
   -1.0514    2.4107   -4.4850 H   0  0  0  0  0  0  0  0  0  0  0  0
    0.7294    2.4583   -4.5277 H   0  0  0  0  0  0  0  0  0  0  0  0
   -0.1074    1.2136   -3.5645 H   0  0  0  0  0  0  0  0  0  0  0  0
   -0.8083    4.9011   -3.9317 H   0  0  0  0  0  0  0  0  0  0  0  0
   -0.1025    5.3948   -2.3782 H   0  0  0  0  0  0  0  0  0  0  0  0
    0.9421    4.7853   -3.6887 H   0  0  0  0  0  0  0  0  0  0  0  0
   -3.7329   -2.5675    1.6288 H   0  0  0  0  0  0  0  0  0  0  0  0
   -4.6011    0.3451   -1.3608 H   0  0  0  0  0  0  0  0  0  0  0  0
   -8.3095   -2.5586    1.7526 H   0  0  0  0  0  0  0  0  0  0  0  0
   -8.7447   -1.0941    0.8286 H   0  0  0  0  0  0  0  0  0  0  0  0
   -9.6884   -2.6057    0.6082 H   0  0  0  0  0  0  0  0  0  0  0  0
   -8.2450    0.7642   -0.8791 H   0  0  0  0  0  0  0  0  0  0  0  0
   -8.9181    0.5034   -2.5055 H   0  0  0  0  0  0  0  0  0  0  0  0
   -9.0727   -0.7706   -1.2843 H   0  0  0  0  0  0  0  0  0  0  0  0
   -5.4003    0.1722   -3.3687 H   0  0  0  0  0  0  0  0  0  0  0  0
   -6.9965    0.8228   -3.7997 H   0  0  0  0  0  0  0  0  0  0  0  0
   -6.1622    1.4186   -2.3465 H   0  0  0  0  0  0  0  0  0  0  0  0
   -6.3944   -2.1409   -3.5139 H   0  0  0  0  0  0  0  0  0  0  0  0
   -7.8709   -2.5601   -2.6018 H   0  0  0  0  0  0  0  0  0  0  0  0
   -7.9554   -1.4036   -3.9587 H   0  0  0  0  0  0  0  0  0  0  0  0
   -6.8754   -3.3308    3.1925 H   0  0  0  0  0  0  0  0  0  0  0  0
   -6.0830   -4.9054    3.4458 H   0  0  0  0  0  0  0  0  0  0  0  0
   -5.1072   -3.4181    3.3292 H   0  0  0  0  0  0  0  0  0  0  0  0
   -7.0878   -5.0596   -0.1693 H   0  0  0  0  0  0  0  0  0  0  0  0
   -6.9994   -5.9838    1.3523 H   0  0  0  0  0  0  0  0  0  0  0  0
   -8.0453   -4.5624    1.2406 H   0  0  0  0  0  0  0  0  0  0  0  0
   -4.5161   -5.1888    0.0558 H   0  0  0  0  0  0  0  0  0  0  0  0
   -3.7012   -4.5707    1.5063 H   0  0  0  0  0  0  0  0  0  0  0  0
   -4.7528   -5.9984    1.6260 H   0  0  0  0  0  0  0  0  0  0  0  0
  1  2  1  0  0  0  0
  1  5  1  0  0  0  0
  2  3  1  0  0  0  0
  2 85  1  0  0  0  0
  2 86  1  0  0  0  0
  3  4  1  0  0  0  0
  4  5  2  0  0  0  0
  4  6  1  0  0  0  0
  5  9  1  0  0  0  0
  6  7  2  0  0  0  0
  6 15  1  0  0  0  0
  7  8  1  0  0  0  0
  7 52  1  0  0  0  0
  8  9  2  0  0  0  0
  8 87  1  0  0  0  0
  9 88  1  0  0  0  0
 10 11  1  0  0  0  0
 10 14  1  0  0  0  0
 11 12  1  0  0  0  0
 11 89  1  0  0  0  0
 11 90  1  0  0  0  0
 12 13  1  0  0  0  0
 13 14  2  0  0  0  0
 13 15  1  0  0  0  0
 14 18  1  0  0  0  0
 15 16  2  0  0  0  0
 16 17  1  0  0  0  0
 16 19  1  0  0  0  0
 17 18  2  0  0  0  0
 17 91  1  0  0  0  0
 18 92  1  0  0  0  0
 19 20  1  0  0  0  0
 19 36  1  0  0  0  0
 20 21  2  0  0  0  0
 20 25  1  0  0  0  0
 21 22  1  0  0  0  0
 21 93  1  0  0  0  0
 22 23  2  0  0  0  0
 22 32  1  0  0  0  0
 23 24  1  0  0  0  0
 23 26  1  0  0  0  0
 24 25  2  0  0  0  0
 24 28  1  0  0  0  0
 25 94  1  0  0  0  0
 26 27  1  0  0  0  0
 27 95  1  0  0  0  0
 27 96  1  0  0  0  0
 27 97  1  0  0  0  0
 28 29  1  0  0  0  0
 28 30  1  0  0  0  0
 28 31  1  0  0  0  0
 29 98  1  0  0  0  0
 29 99  1  0  0  0  0
 29100  1  0  0  0  0
 30101  1  0  0  0  0
 30102  1  0  0  0  0
 30103  1  0  0  0  0
 31104  1  0  0  0  0
 31105  1  0  0  0  0
 31106  1  0  0  0  0
 32 33  1  0  0  0  0
 32 34  1  0  0  0  0
 32 35  1  0  0  0  0
 33107  1  0  0  0  0
 33108  1  0  0  0  0
 33109  1  0  0  0  0
 34110  1  0  0  0  0
 34111  1  0  0  0  0
 34112  1  0  0  0  0
 35113  1  0  0  0  0
 35114  1  0  0  0  0
 35115  1  0  0  0  0
 36 37  2  0  0  0  0
 36 41  1  0  0  0  0
 37 38  1  0  0  0  0
 37116  1  0  0  0  0
 38 39  2  0  0  0  0
 38 48  1  0  0  0  0
 39 40  1  0  0  0  0
 39 42  1  0  0  0  0
 40 41  2  0  0  0  0
 40 44  1  0  0  0  0
 41117  1  0  0  0  0
 42 43  1  0  0  0  0
 43118  1  0  0  0  0
 43119  1  0  0  0  0
 43120  1  0  0  0  0
 44 45  1  0  0  0  0
 44 46  1  0  0  0  0
 44 47  1  0  0  0  0
 45121  1  0  0  0  0
 45122  1  0  0  0  0
 45123  1  0  0  0  0
 46124  1  0  0  0  0
 46125  1  0  0  0  0
 46126  1  0  0  0  0
 47127  1  0  0  0  0
 47128  1  0  0  0  0
 47129  1  0  0  0  0
 48 49  1  0  0  0  0
 48 50  1  0  0  0  0
 48 51  1  0  0  0  0
 49130  1  0  0  0  0
 49131  1  0  0  0  0
 49132  1  0  0  0  0
 50133  1  0  0  0  0
 50134  1  0  0  0  0
 50135  1  0  0  0  0
 51136  1  0  0  0  0
 51137  1  0  0  0  0
 51138  1  0  0  0  0
 52 53  1  0  0  0  0
 52 69  1  0  0  0  0
 53 54  2  0  0  0  0
 53 58  1  0  0  0  0
 54 55  1  0  0  0  0
 54139  1  0  0  0  0
 55 56  2  0  0  0  0
 55 65  1  0  0  0  0
 56 57  1  0  0  0  0
 56 59  1  0  0  0  0
 57 58  2  0  0  0  0
 57 61  1  0  0  0  0
 58140  1  0  0  0  0
 59 60  1  0  0  0  0
 60141  1  0  0  0  0
 60142  1  0  0  0  0
 60143  1  0  0  0  0
 61 62  1  0  0  0  0
 61 63  1  0  0  0  0
 61 64  1  0  0  0  0
 62144  1  0  0  0  0
 62145  1  0  0  0  0
 62146  1  0  0  0  0
 63147  1  0  0  0  0
 63148  1  0  0  0  0
 63149  1  0  0  0  0
 64150  1  0  0  0  0
 64151  1  0  0  0  0
 64152  1  0  0  0  0
 65 66  1  0  0  0  0
 65 67  1  0  0  0  0
 65 68  1  0  0  0  0
 66153  1  0  0  0  0
 66154  1  0  0  0  0
 66155  1  0  0  0  0
 67156  1  0  0  0  0
 67157  1  0  0  0  0
 67158  1  0  0  0  0
 68159  1  0  0  0  0
 68160  1  0  0  0  0
 68161  1  0  0  0  0
 69 70  2  0  0  0  0
 69 74  1  0  0  0  0
 70 71  1  0  0  0  0
 70162  1  0  0  0  0
 71 72  2  0  0  0  0
 71 81  1  0  0  0  0
 72 73  1  0  0  0  0
 72 75  1  0  0  0  0
 73 74  2  0  0  0  0
 73 77  1  0  0  0  0
 74163  1  0  0  0  0
 75 76  1  0  0  0  0
 76164  1  0  0  0  0
 76165  1  0  0  0  0
 76166  1  0  0  0  0
 77 78  1  0  0  0  0
 77 79  1  0  0  0  0
 77 80  1  0  0  0  0
 78167  1  0  0  0  0
 78168  1  0  0  0  0
 78169  1  0  0  0  0
 79170  1  0  0  0  0
 79171  1  0  0  0  0
 79172  1  0  0  0  0
 80173  1  0  0  0  0
 80174  1  0  0  0  0
 80175  1  0  0  0  0
 81 82  1  0  0  0  0
 81 83  1  0  0  0  0
 81 84  1  0  0  0  0
 82176  1  0  0  0  0
 82177  1  0  0  0  0
 82178  1  0  0  0  0
 83179  1  0  0  0  0
 83180  1  0  0  0  0
 83181  1  0  0  0  0
 84182  1  0  0  0  0
 84183  1  0  0  0  0
 84184  1  0  0  0  0
M  END
$$$$
