Title Card Required
 OpenBabel03192317473D

 45 49  0  0  1  0  0  0  0  0999 V2000
    4.0165    1.8674    0.6868 C   0  0  0  0  0  0  0  0  0  0  0  0
    3.7453    2.3074   -0.5957 C   0  0  0  0  0  0  0  0  0  0  0  0
    3.3698    1.2683   -1.4040 N   0  0  0  0  0  0  0  0  0  0  0  0
    3.4152    0.2214   -0.6209 C   0  0  0  0  0  0  0  0  0  0  0  0
    3.8061    0.5194    0.6400 N   0  0  0  0  0  0  0  0  0  0  0  0
    3.0758   -1.2337   -0.7491 C   0  0  1  0  0  0  0  0  0  0  0  0
    3.5220   -1.7970    0.6241 C   0  0  0  0  0  0  0  0  0  0  0  0
    3.7392   -0.5933    1.5707 C   0  0  0  0  0  0  0  0  0  0  0  0
    1.7139   -1.4678   -1.1009 O   0  0  0  0  0  0  0  0  0  0  0  0
    0.7541   -0.9366   -0.3111 C   0  0  0  0  0  0  0  0  0  0  0  0
   -0.4487   -1.0157   -0.9233 N   0  0  0  0  0  0  0  0  0  0  0  0
    0.9680   -0.4805    0.7905 O   0  0  0  0  0  0  0  0  0  0  0  0
   -1.6771   -0.4245   -0.3982 C   0  0  2  0  0  0  0  0  0  0  0  0
   -1.5165    1.0902   -0.1694 C   0  0  0  0  0  0  0  0  0  0  0  0
   -2.1025   -1.0948    0.9213 C   0  0  0  0  0  0  0  0  0  0  0  0
   -3.4284   -0.4933    1.4070 C   0  0  2  0  0  0  0  0  0  0  0  0
   -4.5159   -0.7278    0.3493 C   0  0  0  0  0  0  0  0  0  0  0  0
   -4.1025   -0.0556   -0.9675 C   0  0  1  0  0  0  0  0  0  0  0  0
   -3.2514    1.0145    1.6352 C   0  0  0  0  0  0  0  0  0  0  0  0
   -2.8420    1.6887    0.3178 C   0  0  2  0  0  0  0  0  0  0  0  0
   -3.9297    1.4523   -0.7388 C   0  0  0  0  0  0  0  0  0  0  0  0
   -2.7751   -0.6543   -1.4473 C   0  0  0  0  0  0  0  0  0  0  0  0
    4.3375    2.3902    1.5821 H   0  0  0  0  0  0  0  0  0  0  0  0
    3.8145    3.3265   -0.9704 H   0  0  0  0  0  0  0  0  0  0  0  0
    3.6216   -1.7070   -1.5732 H   0  0  0  0  0  0  0  0  0  0  0  0
    2.7777   -2.4988    1.0183 H   0  0  0  0  0  0  0  0  0  0  0  0
    4.4660   -2.3421    0.4890 H   0  0  0  0  0  0  0  0  0  0  0  0
    2.8879   -0.4544    2.2483 H   0  0  0  0  0  0  0  0  0  0  0  0
    4.6701   -0.6777    2.1475 H   0  0  0  0  0  0  0  0  0  0  0  0
   -0.4347   -1.3276   -1.8866 H   0  0  0  0  0  0  0  0  0  0  0  0
   -0.7178    1.2583    0.5673 H   0  0  0  0  0  0  0  0  0  0  0  0
   -1.2028    1.5611   -1.1158 H   0  0  0  0  0  0  0  0  0  0  0  0
   -2.2089   -2.1790    0.7509 H   0  0  0  0  0  0  0  0  0  0  0  0
   -1.3091   -0.9468    1.6685 H   0  0  0  0  0  0  0  0  0  0  0  0
   -3.7198   -0.9794    2.3509 H   0  0  0  0  0  0  0  0  0  0  0  0
   -5.4773   -0.3151    0.6963 H   0  0  0  0  0  0  0  0  0  0  0  0
   -4.6628   -1.8090    0.1922 H   0  0  0  0  0  0  0  0  0  0  0  0
   -4.8740   -0.2300   -1.7332 H   0  0  0  0  0  0  0  0  0  0  0  0
   -2.4805    1.1898    2.4026 H   0  0  0  0  0  0  0  0  0  0  0  0
   -4.1921    1.4519    2.0082 H   0  0  0  0  0  0  0  0  0  0  0  0
   -2.7119    2.7696    0.4800 H   0  0  0  0  0  0  0  0  0  0  0  0
   -4.8846    1.8921   -0.4072 H   0  0  0  0  0  0  0  0  0  0  0  0
   -3.6519    1.9486   -1.6830 H   0  0  0  0  0  0  0  0  0  0  0  0
   -2.8849   -1.7377   -1.6250 H   0  0  0  0  0  0  0  0  0  0  0  0
   -2.4693   -0.1866   -2.3992 H   0  0  0  0  0  0  0  0  0  0  0  0
  1  2  2  0  0  0  0
  1  5  1  0  0  0  0
  1 23  1  0  0  0  0
  2  3  1  0  0  0  0
  2 24  1  0  0  0  0
  3  4  2  0  0  0  0
  4  5  1  0  0  0  0
  4  6  1  0  0  0  0
  5  8  1  0  0  0  0
  6  7  1  0  0  0  0
  6  9  1  0  0  0  0
  6 25  1  6  0  0  0
  7  8  1  0  0  0  0
  7 26  1  0  0  0  0
  7 27  1  0  0  0  0
  8 28  1  0  0  0  0
  8 29  1  0  0  0  0
  9 10  1  0  0  0  0
 10 11  1  0  0  0  0
 10 12  2  0  0  0  0
 11 30  1  0  0  0  0
 13 11  1  6  0  0  0
 13 14  1  0  0  0  0
 13 15  1  0  0  0  0
 13 22  1  0  0  0  0
 14 20  1  0  0  0  0
 14 31  1  0  0  0  0
 14 32  1  0  0  0  0
 15 16  1  0  0  0  0
 15 33  1  0  0  0  0
 15 34  1  0  0  0  0
 16 17  1  0  0  0  0
 16 19  1  0  0  0  0
 16 35  1  1  0  0  0
 17 18  1  0  0  0  0
 17 36  1  0  0  0  0
 17 37  1  0  0  0  0
 18 21  1  0  0  0  0
 18 22  1  0  0  0  0
 18 38  1  6  0  0  0
 19 20  1  0  0  0  0
 19 39  1  0  0  0  0
 19 40  1  0  0  0  0
 20 21  1  0  0  0  0
 20 41  1  1  0  0  0
 21 42  1  0  0  0  0
 21 43  1  0  0  0  0
 22 44  1  0  0  0  0
 22 45  1  0  0  0  0
M  END
$$$$
