Title Card Required
 OpenBabel03192317553D

 50 53  0  0  0  0  0  0  0  0999 V2000
   -2.6905   -0.0739   -1.3021 C   0  0  0  0  0  0  0  0  0  0  0  0
   -1.6349   -0.0818   -0.3455 C   0  0  0  0  0  0  0  0  0  0  0  0
   -0.5656   -1.0105   -0.4833 C   0  0  0  0  0  0  0  0  0  0  0  0
   -0.5712   -1.9025   -1.5343 C   0  0  0  0  0  0  0  0  0  0  0  0
   -1.6065   -1.8869   -2.5005 C   0  0  0  0  0  0  0  0  0  0  0  0
   -2.6393   -0.9953   -2.3779 C   0  0  0  0  0  0  0  0  0  0  0  0
   -3.7565    0.8572   -1.1679 C   0  0  0  0  0  0  0  0  0  0  0  0
   -3.7636    1.7397   -0.1188 C   0  0  0  0  0  0  0  0  0  0  0  0
   -2.7224    1.7451    0.8426 C   0  0  0  0  0  0  0  0  0  0  0  0
   -1.6854    0.8546    0.7274 C   0  0  0  0  0  0  0  0  0  0  0  0
    0.5657   -1.0105    0.4835 C   0  0  0  0  0  0  0  0  0  0  0  0
    1.6349   -0.0817    0.3455 C   0  0  0  0  0  0  0  0  0  0  0  0
    2.6906   -0.0737    1.3021 C   0  0  0  0  0  0  0  0  0  0  0  0
    2.6394   -0.9950    2.3781 C   0  0  0  0  0  0  0  0  0  0  0  0
    1.6066   -1.8866    2.5008 C   0  0  0  0  0  0  0  0  0  0  0  0
    0.5713   -1.9023    1.5346 C   0  0  0  0  0  0  0  0  0  0  0  0
    1.6854    0.8544   -0.7275 C   0  0  0  0  0  0  0  0  0  0  0  0
    2.7225    1.7449   -0.8429 C   0  0  0  0  0  0  0  0  0  0  0  0
    3.7637    1.7397    0.1185 C   0  0  0  0  0  0  0  0  0  0  0  0
    3.7566    0.8574    1.1677 C   0  0  0  0  0  0  0  0  0  0  0  0
   -5.1770    2.9839    0.0713 Br  0  0  0  0  0  0  0  0  0  0  0  0
    5.1770    2.9839   -0.0718 Br  0  0  0  0  0  0  0  0  0  0  0  0
    0.4640   -2.7656   -1.5889 O   0  0  0  0  0  0  0  0  0  0  0  0
    0.4830   -3.7314   -2.6009 C   0  0  0  0  0  0  0  0  0  0  0  0
    0.6526   -3.1920   -3.8581 O   0  0  0  0  0  0  0  0  0  0  0  0
    1.8621   -2.4877   -4.0162 C   0  0  0  0  0  0  0  0  0  0  0  0
   -0.4639   -2.7655    1.5893 O   0  0  0  0  0  0  0  0  0  0  0  0
   -0.4833   -3.7308    2.6017 C   0  0  0  0  0  0  0  0  0  0  0  0
   -0.6529   -3.1908    3.8586 O   0  0  0  0  0  0  0  0  0  0  0  0
   -1.8624   -2.4864    4.0163 C   0  0  0  0  0  0  0  0  0  0  0  0
   -1.5599   -2.5559   -3.3596 H   0  0  0  0  0  0  0  0  0  0  0  0
   -3.4338   -0.9786   -3.1264 H   0  0  0  0  0  0  0  0  0  0  0  0
   -4.5618    0.8620   -1.9040 H   0  0  0  0  0  0  0  0  0  0  0  0
   -2.7554    2.4601    1.6647 H   0  0  0  0  0  0  0  0  0  0  0  0
   -0.8813    0.8596    1.4650 H   0  0  0  0  0  0  0  0  0  0  0  0
    3.4339   -0.9782    3.1265 H   0  0  0  0  0  0  0  0  0  0  0  0
    1.5600   -2.5554    3.3600 H   0  0  0  0  0  0  0  0  0  0  0  0
    0.8814    0.8593   -1.4651 H   0  0  0  0  0  0  0  0  0  0  0  0
    2.7554    2.4598   -1.6651 H   0  0  0  0  0  0  0  0  0  0  0  0
    4.5619    0.8623    1.9039 H   0  0  0  0  0  0  0  0  0  0  0  0
    1.3212   -4.3947   -2.3276 H   0  0  0  0  0  0  0  0  0  0  0  0
   -0.4615   -4.2977   -2.6190 H   0  0  0  0  0  0  0  0  0  0  0  0
    1.9039   -1.6046   -3.3593 H   0  0  0  0  0  0  0  0  0  0  0  0
    2.7278   -3.1349   -3.7885 H   0  0  0  0  0  0  0  0  0  0  0  0
    1.9189   -2.1672   -5.0624 H   0  0  0  0  0  0  0  0  0  0  0  0
   -1.3215   -4.3941    2.3286 H   0  0  0  0  0  0  0  0  0  0  0  0
    0.4611   -4.2972    2.6202 H   0  0  0  0  0  0  0  0  0  0  0  0
   -1.9042   -1.6037    3.3587 H   0  0  0  0  0  0  0  0  0  0  0  0
   -2.7281   -3.1337    3.7891 H   0  0  0  0  0  0  0  0  0  0  0  0
   -1.9191   -2.1651    5.0623 H   0  0  0  0  0  0  0  0  0  0  0  0
  1  2  1  0  0  0  0
  1  6  2  0  0  0  0
  1  7  1  0  0  0  0
  2  3  2  0  0  0  0
  2 10  1  0  0  0  0
  3  4  1  0  0  0  0
  3 11  1  0  0  0  0
  4  5  2  0  0  0  0
  4 23  1  0  0  0  0
  5  6  1  0  0  0  0
  5 31  1  0  0  0  0
  6 32  1  0  0  0  0
  7  8  2  0  0  0  0
  7 33  1  0  0  0  0
  8  9  1  0  0  0  0
  8 21  1  0  0  0  0
  9 10  2  0  0  0  0
  9 34  1  0  0  0  0
 10 35  1  0  0  0  0
 11 12  2  0  0  0  0
 11 16  1  0  0  0  0
 12 13  1  0  0  0  0
 12 17  1  0  0  0  0
 13 14  2  0  0  0  0
 13 20  1  0  0  0  0
 14 15  1  0  0  0  0
 14 36  1  0  0  0  0
 15 16  2  0  0  0  0
 15 37  1  0  0  0  0
 16 27  1  0  0  0  0
 17 18  2  0  0  0  0
 17 38  1  0  0  0  0
 18 19  1  0  0  0  0
 18 39  1  0  0  0  0
 19 20  2  0  0  0  0
 19 22  1  0  0  0  0
 20 40  1  0  0  0  0
 23 24  1  0  0  0  0
 24 25  1  0  0  0  0
 24 41  1  0  0  0  0
 24 42  1  0  0  0  0
 25 26  1  0  0  0  0
 26 43  1  0  0  0  0
 26 44  1  0  0  0  0
 26 45  1  0  0  0  0
 27 28  1  0  0  0  0
 28 29  1  0  0  0  0
 28 46  1  0  0  0  0
 28 47  1  0  0  0  0
 29 30  1  0  0  0  0
 30 48  1  0  0  0  0
 30 49  1  0  0  0  0
 30 50  1  0  0  0  0
M  END
$$$$
