Title Card Required
 OpenBabel03192317413D

 33 36  0  0  1  0  0  0  0  0999 V2000
    1.1681   -1.9855    0.2773 O   0  0  0  0  0  0  0  0  0  0  0  0
    0.3592   -0.9489    0.5570 C   0  0  0  0  0  0  0  0  0  0  0  0
    0.8192    0.0296    1.2228 N   0  0  0  0  0  0  0  0  0  0  0  0
    2.2340   -0.2628    1.4445 C   0  0  1  0  0  0  0  0  0  0  0  0
    2.4260   -1.7164    0.9122 C   0  0  2  0  0  0  0  0  0  0  0  0
    3.5757   -1.6962   -0.1041 C   0  0  0  0  0  0  0  0  0  0  0  0
    3.8473   -0.2280   -0.3353 C   0  0  0  0  0  0  0  0  0  0  0  0
    4.6999    0.3586   -1.2698 C   0  0  0  0  0  0  0  0  0  0  0  0
    4.8160    1.7480   -1.3032 C   0  0  0  0  0  0  0  0  0  0  0  0
    4.0876    2.5454   -0.4151 C   0  0  0  0  0  0  0  0  0  0  0  0
    3.2336    1.9606    0.5188 C   0  0  0  0  0  0  0  0  0  0  0  0
    3.1274    0.5725    0.5531 C   0  0  0  0  0  0  0  0  0  0  0  0
   -1.0356   -1.0278    0.0533 C   0  0  0  0  0  0  0  0  0  0  0  0
   -1.8894    0.0591    0.2865 C   0  0  0  0  0  0  0  0  0  0  0  0
   -3.1866   -0.0303   -0.1930 C   0  0  0  0  0  0  0  0  0  0  0  0
   -3.5871   -1.1763   -0.8808 C   0  0  0  0  0  0  0  0  0  0  0  0
   -2.6524   -2.1939   -1.0536 C   0  0  0  0  0  0  0  0  0  0  0  0
   -1.4041   -2.1251   -0.5977 N   0  0  0  0  0  0  0  0  0  0  0  0
   -4.1831    1.0809    0.0240 C   0  0  0  0  0  0  0  0  0  0  0  0
   -3.6191    2.1582    0.5626 F   0  0  0  0  0  0  0  0  0  0  0  0
   -4.7493    1.4450   -1.1271 F   0  0  0  0  0  0  0  0  0  0  0  0
   -5.1661    0.6873    0.8356 F   0  0  0  0  0  0  0  0  0  0  0  0
    2.4820   -0.1393    2.5093 H   0  0  0  0  0  0  0  0  0  0  0  0
    2.5649   -2.4707    1.6984 H   0  0  0  0  0  0  0  0  0  0  0  0
    4.4642   -2.2034    0.3024 H   0  0  0  0  0  0  0  0  0  0  0  0
    3.2816   -2.2299   -1.0192 H   0  0  0  0  0  0  0  0  0  0  0  0
    5.2674   -0.2593   -1.9685 H   0  0  0  0  0  0  0  0  0  0  0  0
    5.4793    2.2172   -2.0316 H   0  0  0  0  0  0  0  0  0  0  0  0
    4.1850    3.6312   -0.4581 H   0  0  0  0  0  0  0  0  0  0  0  0
    2.6468    2.5745    1.2044 H   0  0  0  0  0  0  0  0  0  0  0  0
   -1.5196    0.9313    0.8251 H   0  0  0  0  0  0  0  0  0  0  0  0
   -4.5996   -1.2720   -1.2754 H   0  0  0  0  0  0  0  0  0  0  0  0
   -2.9264   -3.1072   -1.5889 H   0  0  0  0  0  0  0  0  0  0  0  0
  1  2  1  0  0  0  0
  1  5  1  0  0  0  0
  2  3  2  0  0  0  0
  2 13  1  0  0  0  0
  3  4  1  0  0  0  0
  4  5  1  0  0  0  0
  4 12  1  0  0  0  0
  4 23  1  1  0  0  0
  5  6  1  0  0  0  0
  5 24  1  1  0  0  0
  6  7  1  0  0  0  0
  6 25  1  0  0  0  0
  6 26  1  0  0  0  0
  7  8  2  0  0  0  0
  7 12  1  0  0  0  0
  8  9  1  0  0  0  0
  8 27  1  0  0  0  0
  9 10  2  0  0  0  0
  9 28  1  0  0  0  0
 10 11  1  0  0  0  0
 10 29  1  0  0  0  0
 11 12  2  0  0  0  0
 11 30  1  0  0  0  0
 13 14  2  0  0  0  0
 13 18  1  0  0  0  0
 14 15  1  0  0  0  0
 14 31  1  0  0  0  0
 15 16  2  0  0  0  0
 15 19  1  0  0  0  0
 16 17  1  0  0  0  0
 16 32  1  0  0  0  0
 17 18  2  0  0  0  0
 17 33  1  0  0  0  0
 19 20  1  0  0  0  0
 19 21  1  0  0  0  0
 19 22  1  0  0  0  0
M  END
$$$$
