Title Card Required
 OpenBabel03192317573D

 63 69  0  0  1  0  0  0  0  0999 V2000
   -0.7189    3.3848    0.1028 C   0  0  0  0  0  0  0  0  0  0  0  0
    0.7192    3.3848   -0.1029 C   0  0  0  0  0  0  0  0  0  0  0  0
    1.0812    2.0263   -0.1574 C   0  0  0  0  0  0  0  0  0  0  0  0
    0.0000    1.2207   -0.0000 O   0  0  0  0  0  0  0  0  0  0  0  0
   -1.0810    2.0264    0.1573 C   0  0  0  0  0  0  0  0  0  0  0  0
    1.6938    4.3748   -0.2362 C   0  0  0  0  0  0  0  0  0  0  0  0
    3.0174    3.9821   -0.4192 C   0  0  0  0  0  0  0  0  0  0  0  0
    3.3619    2.6287   -0.4712 C   0  0  0  0  0  0  0  0  0  0  0  0
    2.4042    1.6156   -0.3445 C   0  0  0  0  0  0  0  0  0  0  0  0
   -2.4041    1.6158    0.3444 C   0  0  0  0  0  0  0  0  0  0  0  0
   -3.3617    2.6289    0.4712 C   0  0  0  0  0  0  0  0  0  0  0  0
   -3.0170    3.9824    0.4193 C   0  0  0  0  0  0  0  0  0  0  0  0
   -1.6934    4.3750    0.2363 C   0  0  0  0  0  0  0  0  0  0  0  0
    2.8347    0.2079   -0.4112 C   0  0  0  0  0  0  0  0  0  0  0  0
   -2.8347    0.2081    0.4111 C   0  0  0  0  0  0  0  0  0  0  0  0
    4.0442   -0.1793   -0.4321 N   0  0  0  0  0  0  0  0  0  0  0  0
    4.0245   -1.6349   -0.5441 C   0  0  2  0  0  0  0  0  0  0  0  0
    2.5203   -1.9912   -0.4438 C   0  0  0  0  0  0  0  0  0  0  0  0
    1.8626   -0.7254   -0.4761 O   0  0  0  0  0  0  0  0  0  0  0  0
   -1.8626   -0.7253    0.4766 O   0  0  0  0  0  0  0  0  0  0  0  0
   -2.5205   -1.9910    0.4439 C   0  0  0  0  0  0  0  0  0  0  0  0
   -4.0247   -1.6345    0.5439 C   0  0  1  0  0  0  0  0  0  0  0  0
   -4.0443   -0.1790    0.4316 N   0  0  0  0  0  0  0  0  0  0  0  0
   -4.8771   -2.3095   -0.5362 C   0  0  0  0  0  0  0  0  0  0  0  0
    4.8769   -2.3095    0.5363 C   0  0  0  0  0  0  0  0  0  0  0  0
   -6.3520   -2.0321   -0.3899 C   0  0  0  0  0  0  0  0  0  0  0  0
    6.3519   -2.0321    0.3899 C   0  0  0  0  0  0  0  0  0  0  0  0
    6.8886   -0.8017    0.7880 C   0  0  0  0  0  0  0  0  0  0  0  0
    8.2455   -0.5336    0.6261 C   0  0  0  0  0  0  0  0  0  0  0  0
    9.0882   -1.4903    0.0587 C   0  0  0  0  0  0  0  0  0  0  0  0
    8.5643   -2.7165   -0.3445 C   0  0  0  0  0  0  0  0  0  0  0  0
    7.2051   -2.9828   -0.1788 C   0  0  0  0  0  0  0  0  0  0  0  0
   -6.8887   -0.8017   -0.7881 C   0  0  0  0  0  0  0  0  0  0  0  0
   -8.2457   -0.5336   -0.6261 C   0  0  0  0  0  0  0  0  0  0  0  0
   -9.0884   -1.4903   -0.0587 C   0  0  0  0  0  0  0  0  0  0  0  0
   -8.5644   -2.7165    0.3446 C   0  0  0  0  0  0  0  0  0  0  0  0
   -7.2053   -2.9828    0.1788 C   0  0  0  0  0  0  0  0  0  0  0  0
    1.4235    5.4311   -0.1976 H   0  0  0  0  0  0  0  0  0  0  0  0
    3.7972    4.7362   -0.5277 H   0  0  0  0  0  0  0  0  0  0  0  0
    4.3973    2.3191   -0.6189 H   0  0  0  0  0  0  0  0  0  0  0  0
   -4.3971    2.3195    0.6189 H   0  0  0  0  0  0  0  0  0  0  0  0
   -3.7968    4.7365    0.5277 H   0  0  0  0  0  0  0  0  0  0  0  0
   -1.4230    5.4313    0.1976 H   0  0  0  0  0  0  0  0  0  0  0  0
    4.4391   -1.9126   -1.5284 H   0  0  0  0  0  0  0  0  0  0  0  0
    2.1520   -2.6039   -1.2765 H   0  0  0  0  0  0  0  0  0  0  0  0
    2.2747   -2.4912    0.5072 H   0  0  0  0  0  0  0  0  0  0  0  0
   -2.1523   -2.6039    1.2764 H   0  0  0  0  0  0  0  0  0  0  0  0
   -2.2748   -2.4907   -0.5072 H   0  0  0  0  0  0  0  0  0  0  0  0
   -4.4392   -1.9119    1.5284 H   0  0  0  0  0  0  0  0  0  0  0  0
   -4.5161   -1.9608   -1.5173 H   0  0  0  0  0  0  0  0  0  0  0  0
   -4.6998   -3.3957   -0.4886 H   0  0  0  0  0  0  0  0  0  0  0  0
    4.5159   -1.9606    1.5172 H   0  0  0  0  0  0  0  0  0  0  0  0
    4.6997   -3.3957    0.4889 H   0  0  0  0  0  0  0  0  0  0  0  0
    6.2241   -0.0491    1.2155 H   0  0  0  0  0  0  0  0  0  0  0  0
    8.6487    0.4290    0.9453 H   0  0  0  0  0  0  0  0  0  0  0  0
   10.1516   -1.2804   -0.0665 H   0  0  0  0  0  0  0  0  0  0  0  0
    9.2163   -3.4717   -0.7865 H   0  0  0  0  0  0  0  0  0  0  0  0
    6.8006   -3.9485   -0.4927 H   0  0  0  0  0  0  0  0  0  0  0  0
   -6.2243   -0.0491   -1.2155 H   0  0  0  0  0  0  0  0  0  0  0  0
   -8.6489    0.4290   -0.9454 H   0  0  0  0  0  0  0  0  0  0  0  0
  -10.1518   -1.2805    0.0665 H   0  0  0  0  0  0  0  0  0  0  0  0
   -9.2164   -3.4717    0.7866 H   0  0  0  0  0  0  0  0  0  0  0  0
   -6.8007   -3.9485    0.4928 H   0  0  0  0  0  0  0  0  0  0  0  0
  1  2  1  0  0  0  0
  1  5  2  0  0  0  0
  1 13  1  0  0  0  0
  2  3  2  0  0  0  0
  2  6  1  0  0  0  0
  3  4  1  0  0  0  0
  3  9  1  0  0  0  0
  4  5  1  0  0  0  0
  5 10  1  0  0  0  0
  6  7  2  0  0  0  0
  6 38  1  0  0  0  0
  7  8  1  0  0  0  0
  7 39  1  0  0  0  0
  8  9  2  0  0  0  0
  8 40  1  0  0  0  0
  9 14  1  0  0  0  0
 10 11  2  0  0  0  0
 10 15  1  0  0  0  0
 11 12  1  0  0  0  0
 11 41  1  0  0  0  0
 12 13  2  0  0  0  0
 12 42  1  0  0  0  0
 13 43  1  0  0  0  0
 14 16  2  0  0  0  0
 14 19  1  0  0  0  0
 15 20  1  0  0  0  0
 15 23  2  0  0  0  0
 16 17  1  0  0  0  0
 17 18  1  0  0  0  0
 17 25  1  0  0  0  0
 17 44  1  6  0  0  0
 18 19  1  0  0  0  0
 18 45  1  0  0  0  0
 18 46  1  0  0  0  0
 20 21  1  0  0  0  0
 21 22  1  0  0  0  0
 21 47  1  0  0  0  0
 21 48  1  0  0  0  0
 22 23  1  0  0  0  0
 22 24  1  0  0  0  0
 22 49  1  1  0  0  0
 24 26  1  0  0  0  0
 24 50  1  0  0  0  0
 24 51  1  0  0  0  0
 25 27  1  0  0  0  0
 25 52  1  0  0  0  0
 25 53  1  0  0  0  0
 26 33  2  0  0  0  0
 26 37  1  0  0  0  0
 27 28  2  0  0  0  0
 27 32  1  0  0  0  0
 28 29  1  0  0  0  0
 28 54  1  0  0  0  0
 29 30  2  0  0  0  0
 29 55  1  0  0  0  0
 30 31  1  0  0  0  0
 30 56  1  0  0  0  0
 31 32  2  0  0  0  0
 31 57  1  0  0  0  0
 32 58  1  0  0  0  0
 33 34  1  0  0  0  0
 33 59  1  0  0  0  0
 34 35  2  0  0  0  0
 34 60  1  0  0  0  0
 35 36  1  0  0  0  0
 35 61  1  0  0  0  0
 36 37  2  0  0  0  0
 36 62  1  0  0  0  0
 37 63  1  0  0  0  0
M  END
$$$$
