Title Card Required
 OpenBabel03192317493D

 36 40  0  0  1  0  0  0  0  0999 V2000
   -0.6549   -1.7065   -0.8207 O   0  0  0  0  0  0  0  0  0  0  0  0
    0.0896   -0.5938   -0.6538 C   0  0  0  0  0  0  0  0  0  0  0  0
   -0.4214    0.5219   -0.9891 N   0  0  0  0  0  0  0  0  0  0  0  0
   -1.7900    0.2400   -1.4156 C   0  0  1  0  0  0  0  0  0  0  0  0
   -1.8810   -1.3140   -1.4421 C   0  0  2  0  0  0  0  0  0  0  0  0
   -3.0949   -1.7281   -0.5988 C   0  0  0  0  0  0  0  0  0  0  0  0
   -3.5083   -0.4598    0.1100 C   0  0  0  0  0  0  0  0  0  0  0  0
   -4.4679   -0.2994    1.1091 C   0  0  0  0  0  0  0  0  0  0  0  0
   -4.7052    0.9751    1.6229 C   0  0  0  0  0  0  0  0  0  0  0  0
   -3.9904    2.0787    1.1477 C   0  0  0  0  0  0  0  0  0  0  0  0
   -3.0303    1.9199    0.1491 C   0  0  0  0  0  0  0  0  0  0  0  0
   -2.8036    0.6465   -0.3671 C   0  0  0  0  0  0  0  0  0  0  0  0
    1.4401   -0.8234   -0.0588 C   0  0  0  0  0  0  0  0  0  0  0  0
    1.5982   -2.0076    0.4818 N   0  0  0  0  0  0  0  0  0  0  0  0
    2.7715   -2.3215    1.0680 C   0  0  0  0  0  0  0  0  0  0  0  0
    3.8340   -1.4561    1.1251 C   0  0  0  0  0  0  0  0  0  0  0  0
    3.7086   -0.1702    0.5420 C   0  0  0  0  0  0  0  0  0  0  0  0
    4.7784    0.7652    0.5592 C   0  0  0  0  0  0  0  0  0  0  0  0
    4.6294    1.9993   -0.0200 C   0  0  0  0  0  0  0  0  0  0  0  0
    3.4047    2.3485   -0.6398 C   0  0  0  0  0  0  0  0  0  0  0  0
    2.3498    1.4682   -0.6701 C   0  0  0  0  0  0  0  0  0  0  0  0
    2.4728    0.1796   -0.0767 C   0  0  0  0  0  0  0  0  0  0  0  0
   -1.9889    0.7185   -2.3864 H   0  0  0  0  0  0  0  0  0  0  0  0
   -1.8959   -1.7479   -2.4516 H   0  0  0  0  0  0  0  0  0  0  0  0
   -3.9062   -2.1056   -1.2404 H   0  0  0  0  0  0  0  0  0  0  0  0
   -2.8155   -2.5359    0.0923 H   0  0  0  0  0  0  0  0  0  0  0  0
   -5.0230   -1.1598    1.4882 H   0  0  0  0  0  0  0  0  0  0  0  0
   -5.4524    1.1120    2.4064 H   0  0  0  0  0  0  0  0  0  0  0  0
   -4.1810    3.0682    1.5662 H   0  0  0  0  0  0  0  0  0  0  0  0
   -2.4550    2.7727   -0.2158 H   0  0  0  0  0  0  0  0  0  0  0  0
    2.8367   -3.3216    1.5044 H   0  0  0  0  0  0  0  0  0  0  0  0
    4.7683   -1.7463    1.6088 H   0  0  0  0  0  0  0  0  0  0  0  0
    5.7161    0.4796    1.0397 H   0  0  0  0  0  0  0  0  0  0  0  0
    5.4532    2.7146   -0.0055 H   0  0  0  0  0  0  0  0  0  0  0  0
    3.2963    3.3326   -1.0985 H   0  0  0  0  0  0  0  0  0  0  0  0
    1.4052    1.7419   -1.1334 H   0  0  0  0  0  0  0  0  0  0  0  0
  1  2  1  0  0  0  0
  1  5  1  0  0  0  0
  2  3  2  0  0  0  0
  2 13  1  0  0  0  0
  3  4  1  0  0  0  0
  4  5  1  0  0  0  0
  4 12  1  0  0  0  0
  4 23  1  6  0  0  0
  5  6  1  0  0  0  0
  5 24  1  6  0  0  0
  6  7  1  0  0  0  0
  6 25  1  0  0  0  0
  6 26  1  0  0  0  0
  7  8  2  0  0  0  0
  7 12  1  0  0  0  0
  8  9  1  0  0  0  0
  8 27  1  0  0  0  0
  9 10  2  0  0  0  0
  9 28  1  0  0  0  0
 10 11  1  0  0  0  0
 10 29  1  0  0  0  0
 11 12  2  0  0  0  0
 11 30  1  0  0  0  0
 13 14  2  0  0  0  0
 13 22  1  0  0  0  0
 14 15  1  0  0  0  0
 15 16  2  0  0  0  0
 15 31  1  0  0  0  0
 16 17  1  0  0  0  0
 16 32  1  0  0  0  0
 17 18  2  0  0  0  0
 17 22  1  0  0  0  0
 18 19  1  0  0  0  0
 18 33  1  0  0  0  0
 19 20  2  0  0  0  0
 19 34  1  0  0  0  0
 20 21  1  0  0  0  0
 20 35  1  0  0  0  0
 21 22  2  0  0  0  0
 21 36  1  0  0  0  0
M  END
$$$$
