Title Card Required
 OpenBabel03192317453D

 71 77  0  0  1  0  0  0  0  0999 V2000
   -0.0969    2.7954    0.1020 C   0  0  0  0  0  0  0  0  0  0  0  0
    0.2921    3.8014   -0.9967 C   0  0  0  0  0  0  0  0  0  0  0  0
   -0.8723    4.7988   -0.9986 C   0  0  0  0  0  0  0  0  0  0  0  0
   -1.3797    4.8504    0.4642 C   0  0  0  0  0  0  0  0  0  0  0  0
   -0.6479    3.7158    1.2113 C   0  0  0  0  0  0  0  0  0  0  0  0
   -0.7551    0.9378   -1.2871 O   0  0  0  0  0  0  0  0  0  0  0  0
   -1.1749    1.8837   -0.4166 C   0  0  0  0  0  0  0  0  0  0  0  0
   -2.4127    1.9558   -0.1630 N   0  0  0  0  0  0  0  0  0  0  0  0
   -3.0801    0.9433   -0.9745 C   0  0  1  0  0  0  0  0  0  0  0  0
   -1.8925    0.1145   -1.6034 C   0  0  2  0  0  0  0  0  0  0  0  0
   -1.7032   -1.2770   -1.0605 C   0  0  0  0  0  0  0  0  0  0  0  0
   -1.3994   -1.4699    0.2924 C   0  0  0  0  0  0  0  0  0  0  0  0
   -1.2716   -2.7567    0.8030 C   0  0  0  0  0  0  0  0  0  0  0  0
   -1.4444   -3.8633   -0.0307 C   0  0  0  0  0  0  0  0  0  0  0  0
   -1.7370   -3.6782   -1.3791 C   0  0  0  0  0  0  0  0  0  0  0  0
   -1.8636   -2.3853   -1.8907 C   0  0  0  0  0  0  0  0  0  0  0  0
   -4.1009    0.1327   -0.2073 C   0  0  0  0  0  0  0  0  0  0  0  0
   -4.8923   -0.7970   -0.8902 C   0  0  0  0  0  0  0  0  0  0  0  0
   -5.8045   -1.5918   -0.2029 C   0  0  0  0  0  0  0  0  0  0  0  0
   -5.9451   -1.4567    1.1790 C   0  0  0  0  0  0  0  0  0  0  0  0
   -5.1711   -0.5217    1.8617 C   0  0  0  0  0  0  0  0  0  0  0  0
   -4.2521    0.2705    1.1724 C   0  0  0  0  0  0  0  0  0  0  0  0
    4.3098    0.8236   -1.0479 C   0  0  0  0  0  0  0  0  0  0  0  0
    5.3196    0.1905   -1.7738 C   0  0  0  0  0  0  0  0  0  0  0  0
    6.1945   -0.6889   -1.1406 C   0  0  0  0  0  0  0  0  0  0  0  0
    6.0632   -0.9273    0.2283 C   0  0  0  0  0  0  0  0  0  0  0  0
    5.0590   -0.2912    0.9521 C   0  0  0  0  0  0  0  0  0  0  0  0
    4.1675    0.5805    0.3183 C   0  0  0  0  0  0  0  0  0  0  0  0
    2.2099   -2.2892    1.7759 C   0  0  0  0  0  0  0  0  0  0  0  0
    2.2370   -3.5504    1.1776 C   0  0  0  0  0  0  0  0  0  0  0  0
    1.9913   -3.6748   -0.1869 C   0  0  0  0  0  0  0  0  0  0  0  0
    1.7132   -2.5397   -0.9513 C   0  0  0  0  0  0  0  0  0  0  0  0
    1.6850   -1.2849   -0.3536 C   0  0  0  0  0  0  0  0  0  0  0  0
    1.9394   -1.1520    1.0166 C   0  0  0  0  0  0  0  0  0  0  0  0
    1.9539    0.2118    1.6545 C   0  0  1  0  0  0  0  0  0  0  0  0
    3.0516    1.2140    1.1197 C   0  0  2  0  0  0  0  0  0  0  0  0
    2.2894    2.2067    0.3707 N   0  0  0  0  0  0  0  0  0  0  0  0
    1.0639    1.9737    0.5791 C   0  0  0  0  0  0  0  0  0  0  0  0
    0.7350    0.9174    1.3569 O   0  0  0  0  0  0  0  0  0  0  0  0
    1.2346    4.2740   -0.6857 H   0  0  0  0  0  0  0  0  0  0  0  0
    0.4678    3.3104   -1.9639 H   0  0  0  0  0  0  0  0  0  0  0  0
   -0.5648    5.7823   -1.3784 H   0  0  0  0  0  0  0  0  0  0  0  0
   -1.6737    4.4343   -1.6572 H   0  0  0  0  0  0  0  0  0  0  0  0
   -1.1732    5.8211    0.9353 H   0  0  0  0  0  0  0  0  0  0  0  0
   -2.4637    4.6872    0.4993 H   0  0  0  0  0  0  0  0  0  0  0  0
   -1.2938    3.1672    1.9078 H   0  0  0  0  0  0  0  0  0  0  0  0
    0.2141    4.1101    1.7697 H   0  0  0  0  0  0  0  0  0  0  0  0
   -3.6128    1.4636   -1.7889 H   0  0  0  0  0  0  0  0  0  0  0  0
   -1.9763    0.0749   -2.6974 H   0  0  0  0  0  0  0  0  0  0  0  0
   -1.2395   -0.6062    0.9432 H   0  0  0  0  0  0  0  0  0  0  0  0
   -1.0206   -2.8991    1.8552 H   0  0  0  0  0  0  0  0  0  0  0  0
   -1.3377   -4.8717    0.3730 H   0  0  0  0  0  0  0  0  0  0  0  0
   -1.8639   -4.5388   -2.0379 H   0  0  0  0  0  0  0  0  0  0  0  0
   -2.0916   -2.2376   -2.9497 H   0  0  0  0  0  0  0  0  0  0  0  0
   -4.7822   -0.9105   -1.9723 H   0  0  0  0  0  0  0  0  0  0  0  0
   -6.4088   -2.3195   -0.7468 H   0  0  0  0  0  0  0  0  0  0  0  0
   -6.6599   -2.0781    1.7205 H   0  0  0  0  0  0  0  0  0  0  0  0
   -5.2810   -0.4062    2.9413 H   0  0  0  0  0  0  0  0  0  0  0  0
   -3.6424    1.0061    1.6979 H   0  0  0  0  0  0  0  0  0  0  0  0
    3.6207    1.5158   -1.5330 H   0  0  0  0  0  0  0  0  0  0  0  0
    5.4215    0.3871   -2.8424 H   0  0  0  0  0  0  0  0  0  0  0  0
    6.9811   -1.1871   -1.7093 H   0  0  0  0  0  0  0  0  0  0  0  0
    6.7473   -1.6113    0.7330 H   0  0  0  0  0  0  0  0  0  0  0  0
    4.9582   -0.4839    2.0238 H   0  0  0  0  0  0  0  0  0  0  0  0
    2.4021   -2.1896    2.8474 H   0  0  0  0  0  0  0  0  0  0  0  0
    2.4498   -4.4348    1.7803 H   0  0  0  0  0  0  0  0  0  0  0  0
    2.0068   -4.6590   -0.6582 H   0  0  0  0  0  0  0  0  0  0  0  0
    1.5056   -2.6371   -2.0180 H   0  0  0  0  0  0  0  0  0  0  0  0
    1.4424   -0.4006   -0.9486 H   0  0  0  0  0  0  0  0  0  0  0  0
    2.0159    0.1073    2.7458 H   0  0  0  0  0  0  0  0  0  0  0  0
    3.5113    1.7227    1.9842 H   0  0  0  0  0  0  0  0  0  0  0  0
  1  2  1  0  0  0  0
  1  5  1  0  0  0  0
  1  7  1  0  0  0  0
  1 38  1  0  0  0  0
  2  3  1  0  0  0  0
  2 40  1  0  0  0  0
  2 41  1  0  0  0  0
  3  4  1  0  0  0  0
  3 42  1  0  0  0  0
  3 43  1  0  0  0  0
  4  5  1  0  0  0  0
  4 44  1  0  0  0  0
  4 45  1  0  0  0  0
  5 46  1  0  0  0  0
  5 47  1  0  0  0  0
  6  7  1  0  0  0  0
  6 10  1  0  0  0  0
  7  8  2  0  0  0  0
  8  9  1  0  0  0  0
  9 10  1  0  0  0  0
  9 17  1  0  0  0  0
  9 48  1  6  0  0  0
 10 11  1  0  0  0  0
 10 49  1  6  0  0  0
 11 12  2  0  0  0  0
 11 16  1  0  0  0  0
 12 13  1  0  0  0  0
 12 50  1  0  0  0  0
 13 14  2  0  0  0  0
 13 51  1  0  0  0  0
 14 15  1  0  0  0  0
 14 52  1  0  0  0  0
 15 16  2  0  0  0  0
 15 53  1  0  0  0  0
 16 54  1  0  0  0  0
 17 18  2  0  0  0  0
 17 22  1  0  0  0  0
 18 19  1  0  0  0  0
 18 55  1  0  0  0  0
 19 20  2  0  0  0  0
 19 56  1  0  0  0  0
 20 21  1  0  0  0  0
 20 57  1  0  0  0  0
 21 22  2  0  0  0  0
 21 58  1  0  0  0  0
 22 59  1  0  0  0  0
 23 24  2  0  0  0  0
 23 28  1  0  0  0  0
 23 60  1  0  0  0  0
 24 25  1  0  0  0  0
 24 61  1  0  0  0  0
 25 26  2  0  0  0  0
 25 62  1  0  0  0  0
 26 27  1  0  0  0  0
 26 63  1  0  0  0  0
 27 28  2  0  0  0  0
 27 64  1  0  0  0  0
 28 36  1  0  0  0  0
 29 30  2  0  0  0  0
 29 34  1  0  0  0  0
 29 65  1  0  0  0  0
 30 31  1  0  0  0  0
 30 66  1  0  0  0  0
 31 32  2  0  0  0  0
 31 67  1  0  0  0  0
 32 33  1  0  0  0  0
 32 68  1  0  0  0  0
 33 34  2  0  0  0  0
 33 69  1  0  0  0  0
 34 35  1  0  0  0  0
 35 36  1  0  0  0  0
 35 39  1  0  0  0  0
 35 70  1  1  0  0  0
 36 37  1  0  0  0  0
 36 71  1  1  0  0  0
 37 38  2  0  0  0  0
 38 39  1  0  0  0  0
M  END
$$$$
