Title Card Required
 OpenBabel03192317433D

 80 86  0  0  1  0  0  0  0  0999 V2000
    0.8436    3.0754    0.5616 N   0  0  0  0  0  0  0  0  0  0  0  0
    1.3249    4.2974   -0.0674 C   0  0  0  0  0  0  0  0  0  0  0  0
    2.8257    4.4827    0.1541 C   0  0  0  0  0  0  0  0  0  0  0  0
    3.1579    4.4105    1.6449 C   0  0  0  0  0  0  0  0  0  0  0  0
    2.6273    3.1120    2.2541 C   0  0  0  0  0  0  0  0  0  0  0  0
    1.1301    2.9671    1.9871 C   0  0  0  0  0  0  0  0  0  0  0  0
    1.4950    0.6514    0.2412 O   0  0  0  0  0  0  0  0  0  0  0  0
    0.3869    1.7710   -0.3686 P   0  0  1  0  0  0  0  0  0  0  0  0
   -0.8945    1.2494    0.5851 O   0  0  0  0  0  0  0  0  0  0  0  0
   -1.8615    0.3367    0.0901 C   0  0  0  0  0  0  0  0  0  0  0  0
   -1.0960   -0.8140   -0.6279 C   0  0  1  0  0  0  0  0  0  0  0  0
    0.1378   -1.3238    0.1507 C   0  0  2  0  0  0  0  0  0  0  0  0
    1.5111   -0.6962   -0.2059 C   0  0  0  0  0  0  0  0  0  0  0  0
    0.1322   -2.7038   -0.1242 O   0  0  0  0  0  0  0  0  0  0  0  0
   -1.2111   -3.1091   -0.2688 C   0  0  0  0  0  0  0  0  0  0  0  0
   -1.8757   -1.9704   -0.8207 O   0  0  0  0  0  0  0  0  0  0  0  0
    1.9000   -0.7286   -1.6899 C   0  0  0  0  0  0  0  0  0  0  0  0
    2.9304    0.1326   -2.0907 C   0  0  0  0  0  0  0  0  0  0  0  0
    3.3764    0.1490   -3.4078 C   0  0  0  0  0  0  0  0  0  0  0  0
    2.7977   -0.6987   -4.3538 C   0  0  0  0  0  0  0  0  0  0  0  0
    1.7768   -1.5601   -3.9650 C   0  0  0  0  0  0  0  0  0  0  0  0
    1.3317   -1.5793   -2.6410 C   0  0  0  0  0  0  0  0  0  0  0  0
    2.5704   -1.4258    0.6257 C   0  0  0  0  0  0  0  0  0  0  0  0
    2.9647   -0.9193    1.8663 C   0  0  0  0  0  0  0  0  0  0  0  0
    3.8987   -1.6060    2.6432 C   0  0  0  0  0  0  0  0  0  0  0  0
    4.4411   -2.8067    2.1911 C   0  0  0  0  0  0  0  0  0  0  0  0
    4.0436   -3.3192    0.9563 C   0  0  0  0  0  0  0  0  0  0  0  0
    3.1154   -2.6332    0.1779 C   0  0  0  0  0  0  0  0  0  0  0  0
   -2.8010    1.0620   -0.8752 C   0  0  0  0  0  0  0  0  0  0  0  0
   -3.1578    2.3838   -0.5858 C   0  0  0  0  0  0  0  0  0  0  0  0
   -4.0309    3.0777   -1.4180 C   0  0  0  0  0  0  0  0  0  0  0  0
   -4.5623    2.4578   -2.5500 C   0  0  0  0  0  0  0  0  0  0  0  0
   -4.2113    1.1425   -2.8423 C   0  0  0  0  0  0  0  0  0  0  0  0
   -3.3321    0.4453   -2.0112 C   0  0  0  0  0  0  0  0  0  0  0  0
   -2.6364   -0.1909    1.2949 C   0  0  0  0  0  0  0  0  0  0  0  0
   -2.1145   -0.0706    2.5859 C   0  0  0  0  0  0  0  0  0  0  0  0
   -2.7909   -0.6201    3.6763 C   0  0  0  0  0  0  0  0  0  0  0  0
   -3.9992   -1.2874    3.4888 C   0  0  0  0  0  0  0  0  0  0  0  0
   -4.5353   -1.3907    2.2049 C   0  0  0  0  0  0  0  0  0  0  0  0
   -3.8601   -0.8458    1.1162 C   0  0  0  0  0  0  0  0  0  0  0  0
   -1.2766   -4.2469   -1.2669 C   0  0  0  0  0  0  0  0  0  0  0  0
   -1.8105   -3.4916    1.0770 C   0  0  0  0  0  0  0  0  0  0  0  0
   -0.7890   -0.4234   -1.6147 H   0  0  0  0  0  0  0  0  0  0  0  0
   -0.0002   -1.1362    1.2311 H   0  0  0  0  0  0  0  0  0  0  0  0
    0.7805    5.1584    0.3643 H   0  0  0  0  0  0  0  0  0  0  0  0
    1.0818    4.2631   -1.1398 H   0  0  0  0  0  0  0  0  0  0  0  0
    3.1534    5.4420   -0.2748 H   0  0  0  0  0  0  0  0  0  0  0  0
    3.3606    3.6806   -0.3824 H   0  0  0  0  0  0  0  0  0  0  0  0
    4.2427    4.4981    1.8040 H   0  0  0  0  0  0  0  0  0  0  0  0
    2.6913    5.2695    2.1591 H   0  0  0  0  0  0  0  0  0  0  0  0
    3.1433    2.2525    1.7954 H   0  0  0  0  0  0  0  0  0  0  0  0
    2.8210    3.0814    3.3373 H   0  0  0  0  0  0  0  0  0  0  0  0
    0.7508    2.0007    2.3462 H   0  0  0  0  0  0  0  0  0  0  0  0
    0.5743    3.7602    2.5213 H   0  0  0  0  0  0  0  0  0  0  0  0
    3.3816    0.7929   -1.3476 H   0  0  0  0  0  0  0  0  0  0  0  0
    4.1819    0.8250   -3.6991 H   0  0  0  0  0  0  0  0  0  0  0  0
    3.1444   -0.6876   -5.3882 H   0  0  0  0  0  0  0  0  0  0  0  0
    1.3186   -2.2302   -4.6943 H   0  0  0  0  0  0  0  0  0  0  0  0
    0.5438   -2.2705   -2.3502 H   0  0  0  0  0  0  0  0  0  0  0  0
    2.5393    0.0217    2.2156 H   0  0  0  0  0  0  0  0  0  0  0  0
    4.2050   -1.1963    3.6073 H   0  0  0  0  0  0  0  0  0  0  0  0
    5.1733   -3.3422    2.7976 H   0  0  0  0  0  0  0  0  0  0  0  0
    4.4619   -4.2593    0.5929 H   0  0  0  0  0  0  0  0  0  0  0  0
    2.8079   -3.0359   -0.7880 H   0  0  0  0  0  0  0  0  0  0  0  0
   -2.7319    2.8627    0.2976 H   0  0  0  0  0  0  0  0  0  0  0  0
   -4.2984    4.1094   -1.1832 H   0  0  0  0  0  0  0  0  0  0  0  0
   -5.2465    3.0018   -3.2031 H   0  0  0  0  0  0  0  0  0  0  0  0
   -4.6205    0.6513   -3.7267 H   0  0  0  0  0  0  0  0  0  0  0  0
   -3.0702   -0.5885   -2.2445 H   0  0  0  0  0  0  0  0  0  0  0  0
   -1.1734    0.4592    2.7301 H   0  0  0  0  0  0  0  0  0  0  0  0
   -2.3694   -0.5213    4.6780 H   0  0  0  0  0  0  0  0  0  0  0  0
   -4.5276   -1.7175    4.3411 H   0  0  0  0  0  0  0  0  0  0  0  0
   -5.4879   -1.8999    2.0493 H   0  0  0  0  0  0  0  0  0  0  0  0
   -4.2818   -0.9339    0.1143 H   0  0  0  0  0  0  0  0  0  0  0  0
   -0.6741   -5.0909   -0.9071 H   0  0  0  0  0  0  0  0  0  0  0  0
   -2.3170   -4.5746   -1.3895 H   0  0  0  0  0  0  0  0  0  0  0  0
   -0.8921   -3.9158   -2.2399 H   0  0  0  0  0  0  0  0  0  0  0  0
   -1.6985   -2.6815    1.8101 H   0  0  0  0  0  0  0  0  0  0  0  0
   -2.8825   -3.6995    0.9622 H   0  0  0  0  0  0  0  0  0  0  0  0
   -1.3027   -4.3882    1.4577 H   0  0  0  0  0  0  0  0  0  0  0  0
  1  2  1  0  0  0  0
  1  6  1  0  0  0  0
  2  3  1  0  0  0  0
  2 45  1  0  0  0  0
  2 46  1  0  0  0  0
  3  4  1  0  0  0  0
  3 47  1  0  0  0  0
  3 48  1  0  0  0  0
  4  5  1  0  0  0  0
  4 49  1  0  0  0  0
  4 50  1  0  0  0  0
  5  6  1  0  0  0  0
  5 51  1  0  0  0  0
  5 52  1  0  0  0  0
  6 53  1  0  0  0  0
  6 54  1  0  0  0  0
  7  8  1  0  0  0  0
  7 13  1  0  0  0  0
  8  1  1  1  0  0  0
  8  9  1  0  0  0  0
  9 10  1  0  0  0  0
 10 11  1  0  0  0  0
 10 29  1  0  0  0  0
 10 35  1  0  0  0  0
 11 12  1  0  0  0  0
 11 16  1  0  0  0  0
 11 43  1  6  0  0  0
 12 13  1  0  0  0  0
 12 14  1  0  0  0  0
 12 44  1  1  0  0  0
 13 17  1  0  0  0  0
 13 23  1  0  0  0  0
 14 15  1  0  0  0  0
 15 16  1  0  0  0  0
 15 41  1  0  0  0  0
 15 42  1  0  0  0  0
 17 18  2  0  0  0  0
 17 22  1  0  0  0  0
 18 19  1  0  0  0  0
 18 55  1  0  0  0  0
 19 20  2  0  0  0  0
 19 56  1  0  0  0  0
 20 21  1  0  0  0  0
 20 57  1  0  0  0  0
 21 22  2  0  0  0  0
 21 58  1  0  0  0  0
 22 59  1  0  0  0  0
 23 24  2  0  0  0  0
 23 28  1  0  0  0  0
 24 25  1  0  0  0  0
 24 60  1  0  0  0  0
 25 26  2  0  0  0  0
 25 61  1  0  0  0  0
 26 27  1  0  0  0  0
 26 62  1  0  0  0  0
 27 28  2  0  0  0  0
 27 63  1  0  0  0  0
 28 64  1  0  0  0  0
 29 30  2  0  0  0  0
 29 34  1  0  0  0  0
 30 31  1  0  0  0  0
 30 65  1  0  0  0  0
 31 32  2  0  0  0  0
 31 66  1  0  0  0  0
 32 33  1  0  0  0  0
 32 67  1  0  0  0  0
 33 34  2  0  0  0  0
 33 68  1  0  0  0  0
 34 69  1  0  0  0  0
 35 36  2  0  0  0  0
 35 40  1  0  0  0  0
 36 37  1  0  0  0  0
 36 70  1  0  0  0  0
 37 38  2  0  0  0  0
 37 71  1  0  0  0  0
 38 39  1  0  0  0  0
 38 72  1  0  0  0  0
 39 40  2  0  0  0  0
 39 73  1  0  0  0  0
 40 74  1  0  0  0  0
 41 75  1  0  0  0  0
 41 76  1  0  0  0  0
 41 77  1  0  0  0  0
 42 78  1  0  0  0  0
 42 79  1  0  0  0  0
 42 80  1  0  0  0  0
M  END
$$$$
