Title Card Required
 OpenBabel03192317473D

 64 67  0  0  1  0  0  0  0  0999 V2000
   -2.3756    0.3221    2.1005 C   0  0  0  0  0  0  0  0  0  0  0  0
   -1.7643    0.5698    0.7245 C   0  0  1  0  0  0  0  0  0  0  0  0
   -0.4248   -0.1700    0.5873 C   0  0  0  0  0  0  0  0  0  0  0  0
    0.4341    0.2937   -0.5885 C   0  0  0  0  0  0  0  0  0  0  0  0
    1.7746   -0.4452   -0.7395 C   0  0  2  0  0  0  0  0  0  0  0  0
    1.5866   -1.9576   -0.8788 C   0  0  0  0  0  0  0  0  0  0  0  0
   -2.8725    0.1366   -0.7374 P   0  0  0  0  0  0  0  0  0  0  0  0
   -3.4873   -1.5235   -0.2101 C   0  0  0  0  0  0  0  0  0  0  0  0
   -4.5476   -1.7307    0.6837 C   0  0  0  0  0  0  0  0  0  0  0  0
   -4.9147   -3.0210    1.0602 C   0  0  0  0  0  0  0  0  0  0  0  0
   -4.2256   -4.1242    0.5544 C   0  0  0  0  0  0  0  0  0  0  0  0
   -3.1724   -3.9325   -0.3370 C   0  0  0  0  0  0  0  0  0  0  0  0
   -2.8139   -2.6402   -0.7226 C   0  0  0  0  0  0  0  0  0  0  0  0
   -4.3576    1.1894   -0.4582 C   0  0  0  0  0  0  0  0  0  0  0  0
   -4.3229    2.4003    0.2445 C   0  0  0  0  0  0  0  0  0  0  0  0
   -5.4542    3.2146    0.3217 C   0  0  0  0  0  0  0  0  0  0  0  0
   -6.6393    2.8331   -0.3019 C   0  0  0  0  0  0  0  0  0  0  0  0
   -6.6855    1.6318   -1.0112 C   0  0  0  0  0  0  0  0  0  0  0  0
   -5.5550    0.8246   -1.0944 C   0  0  0  0  0  0  0  0  0  0  0  0
    2.9116   -0.0779    0.7079 P   0  0  0  0  0  0  0  0  0  0  0  0
    4.4018   -1.0393    0.1793 C   0  0  0  0  0  0  0  0  0  0  0  0
    5.2232   -0.6522   -0.8877 C   0  0  0  0  0  0  0  0  0  0  0  0
    6.3019   -1.4455   -1.2730 C   0  0  0  0  0  0  0  0  0  0  0  0
    6.5753   -2.6346   -0.5948 C   0  0  0  0  0  0  0  0  0  0  0  0
    5.7688   -3.0252    0.4723 C   0  0  0  0  0  0  0  0  0  0  0  0
    4.6911   -2.2277    0.8596 C   0  0  0  0  0  0  0  0  0  0  0  0
    3.5005    1.6361    0.3453 C   0  0  0  0  0  0  0  0  0  0  0  0
    3.1915    2.3813   -0.7992 C   0  0  0  0  0  0  0  0  0  0  0  0
    3.7031    3.6693   -0.9708 C   0  0  0  0  0  0  0  0  0  0  0  0
    4.5373    4.2285   -0.0058 C   0  0  0  0  0  0  0  0  0  0  0  0
    4.8520    3.4970    1.1401 C   0  0  0  0  0  0  0  0  0  0  0  0
    4.3291    2.2189    1.3161 C   0  0  0  0  0  0  0  0  0  0  0  0
   -2.4803   -0.7577    2.2835 H   0  0  0  0  0  0  0  0  0  0  0  0
   -3.3689    0.7811    2.2099 H   0  0  0  0  0  0  0  0  0  0  0  0
   -1.7204    0.7325    2.8846 H   0  0  0  0  0  0  0  0  0  0  0  0
   -1.5635    1.6481    0.5959 H   0  0  0  0  0  0  0  0  0  0  0  0
    0.1385   -0.0324    1.5257 H   0  0  0  0  0  0  0  0  0  0  0  0
   -0.6235   -1.2538    0.5163 H   0  0  0  0  0  0  0  0  0  0  0  0
   -0.1319    0.1665   -1.5271 H   0  0  0  0  0  0  0  0  0  0  0  0
    0.6126    1.3778   -0.4851 H   0  0  0  0  0  0  0  0  0  0  0  0
    2.2700   -0.0855   -1.6565 H   0  0  0  0  0  0  0  0  0  0  0  0
    2.5162   -2.4478   -1.1994 H   0  0  0  0  0  0  0  0  0  0  0  0
    1.2730   -2.4219    0.0693 H   0  0  0  0  0  0  0  0  0  0  0  0
    0.8099   -2.1705   -1.6306 H   0  0  0  0  0  0  0  0  0  0  0  0
   -5.0917   -0.8737    1.0867 H   0  0  0  0  0  0  0  0  0  0  0  0
   -5.7414   -3.1663    1.7577 H   0  0  0  0  0  0  0  0  0  0  0  0
   -4.5150   -5.1335    0.8519 H   0  0  0  0  0  0  0  0  0  0  0  0
   -2.6351   -4.7902   -0.7449 H   0  0  0  0  0  0  0  0  0  0  0  0
   -2.0030   -2.4927   -1.4410 H   0  0  0  0  0  0  0  0  0  0  0  0
   -3.4077    2.7215    0.7450 H   0  0  0  0  0  0  0  0  0  0  0  0
   -5.4055    4.1523    0.8778 H   0  0  0  0  0  0  0  0  0  0  0  0
   -7.5236    3.4691   -0.2401 H   0  0  0  0  0  0  0  0  0  0  0  0
   -7.6070    1.3245   -1.5088 H   0  0  0  0  0  0  0  0  0  0  0  0
   -5.6011   -0.1108   -1.6587 H   0  0  0  0  0  0  0  0  0  0  0  0
    5.0203    0.2832   -1.4155 H   0  0  0  0  0  0  0  0  0  0  0  0
    6.9352   -1.1334   -2.1053 H   0  0  0  0  0  0  0  0  0  0  0  0
    7.4222   -3.2534   -0.8960 H   0  0  0  0  0  0  0  0  0  0  0  0
    5.9825   -3.9501    1.0106 H   0  0  0  0  0  0  0  0  0  0  0  0
    4.0635   -2.5288    1.7021 H   0  0  0  0  0  0  0  0  0  0  0  0
    2.5468    1.9647   -1.5749 H   0  0  0  0  0  0  0  0  0  0  0  0
    3.4486    4.2356   -1.8684 H   0  0  0  0  0  0  0  0  0  0  0  0
    4.9394    5.2336   -0.1428 H   0  0  0  0  0  0  0  0  0  0  0  0
    5.5027    3.9271    1.9033 H   0  0  0  0  0  0  0  0  0  0  0  0
    4.5703    1.6550    2.2212 H   0  0  0  0  0  0  0  0  0  0  0  0
  1  2  1  0  0  0  0
  1 33  1  0  0  0  0
  1 34  1  0  0  0  0
  1 35  1  0  0  0  0
  2  3  1  0  0  0  0
  2  7  1  0  0  0  0
  2 36  1  6  0  0  0
  3  4  1  0  0  0  0
  3 37  1  0  0  0  0
  3 38  1  0  0  0  0
  4  5  1  0  0  0  0
  4 39  1  0  0  0  0
  4 40  1  0  0  0  0
  5  6  1  0  0  0  0
  5 20  1  0  0  0  0
  5 41  1  6  0  0  0
  6 42  1  0  0  0  0
  6 43  1  0  0  0  0
  6 44  1  0  0  0  0
  7  8  1  0  0  0  0
  7 14  1  0  0  0  0
  8  9  2  0  0  0  0
  8 13  1  0  0  0  0
  9 10  1  0  0  0  0
  9 45  1  0  0  0  0
 10 11  2  0  0  0  0
 10 46  1  0  0  0  0
 11 12  1  0  0  0  0
 11 47  1  0  0  0  0
 12 13  2  0  0  0  0
 12 48  1  0  0  0  0
 13 49  1  0  0  0  0
 14 15  2  0  0  0  0
 14 19  1  0  0  0  0
 15 16  1  0  0  0  0
 15 50  1  0  0  0  0
 16 17  2  0  0  0  0
 16 51  1  0  0  0  0
 17 18  1  0  0  0  0
 17 52  1  0  0  0  0
 18 19  2  0  0  0  0
 18 53  1  0  0  0  0
 19 54  1  0  0  0  0
 20 21  1  0  0  0  0
 20 27  1  0  0  0  0
 21 22  2  0  0  0  0
 21 26  1  0  0  0  0
 22 23  1  0  0  0  0
 22 55  1  0  0  0  0
 23 24  2  0  0  0  0
 23 56  1  0  0  0  0
 24 25  1  0  0  0  0
 24 57  1  0  0  0  0
 25 26  2  0  0  0  0
 25 58  1  0  0  0  0
 26 59  1  0  0  0  0
 27 28  2  0  0  0  0
 27 32  1  0  0  0  0
 28 29  1  0  0  0  0
 28 60  1  0  0  0  0
 29 30  2  0  0  0  0
 29 61  1  0  0  0  0
 30 31  1  0  0  0  0
 30 62  1  0  0  0  0
 31 32  2  0  0  0  0
 31 63  1  0  0  0  0
 32 64  1  0  0  0  0
M  END
$$$$
