Title Card Required
 OpenBabel03192317533D

 93 98  0  0  1  0  0  0  0  0999 V2000
   -6.1857    1.3280    2.3886 C   0  0  0  0  0  0  0  0  0  0  0  0
   -5.1207    1.7344    1.3719 C   0  0  0  0  0  0  0  0  0  0  0  0
   -4.1146    2.7072    1.9666 C   0  0  0  0  0  0  0  0  0  0  0  0
   -4.2399    0.1364    0.9836 S   0  0  1  0  0  0  0  0  0  0  0  0
   -5.3225   -0.7173    0.3898 O   0  0  0  0  0  0  0  0  0  0  0  0
   -3.2197    0.7149   -0.2389 N   0  0  0  0  0  0  0  0  0  0  0  0
   -5.7640    2.2561    0.0951 C   0  0  0  0  0  0  0  0  0  0  0  0
   -1.9218    0.0664   -0.4175 C   0  0  1  0  0  0  0  0  0  0  0  0
    0.4526   -4.3522   -1.1649 C   0  0  0  0  0  0  0  0  0  0  0  0
   -0.8007   -3.4901   -1.2859 C   0  0  0  0  0  0  0  0  0  0  0  0
   -1.9845   -4.0179   -1.8204 C   0  0  0  0  0  0  0  0  0  0  0  0
   -3.1371   -3.2529   -1.9184 C   0  0  0  0  0  0  0  0  0  0  0  0
   -3.1390   -1.9283   -1.4735 C   0  0  0  0  0  0  0  0  0  0  0  0
   -1.9850   -1.3618   -0.9438 C   0  0  0  0  0  0  0  0  0  0  0  0
   -0.8288   -2.1610   -0.8676 C   0  0  0  0  0  0  0  0  0  0  0  0
    0.2715   -1.5336   -0.3621 O   0  0  0  0  0  0  0  0  0  0  0  0
    1.4430   -2.2044   -0.1963 C   0  0  0  0  0  0  0  0  0  0  0  0
    2.4856   -1.4432    0.3663 C   0  0  0  0  0  0  0  0  0  0  0  0
    3.7079   -2.0737    0.5965 C   0  0  0  0  0  0  0  0  0  0  0  0
    3.8823   -3.4196    0.2686 C   0  0  0  0  0  0  0  0  0  0  0  0
    2.8353   -4.1395   -0.2922 C   0  0  0  0  0  0  0  0  0  0  0  0
    1.5878   -3.5496   -0.5357 C   0  0  0  0  0  0  0  0  0  0  0  0
    0.1405   -5.5754   -0.2825 C   0  0  0  0  0  0  0  0  0  0  0  0
    0.8860   -4.8216   -2.5666 C   0  0  0  0  0  0  0  0  0  0  0  0
    2.2004    0.3702    0.5866 P   0  0  0  0  0  0  0  0  0  0  0  0
    0.8801    0.4078    1.8787 C   0  0  0  0  0  0  0  0  0  0  0  0
    0.3527   -0.7213    2.5161 C   0  0  0  0  0  0  0  0  0  0  0  0
   -0.7164   -0.5988    3.4039 C   0  0  0  0  0  0  0  0  0  0  0  0
   -1.2620    0.6551    3.6773 C   0  0  0  0  0  0  0  0  0  0  0  0
   -0.7259    1.7898    3.0672 C   0  0  0  0  0  0  0  0  0  0  0  0
    0.3331    1.6639    2.1700 C   0  0  0  0  0  0  0  0  0  0  0  0
    3.6841    0.8050    1.5984 C   0  0  0  0  0  0  0  0  0  0  0  0
    4.7728    1.3784    0.9303 C   0  0  0  0  0  0  0  0  0  0  0  0
    5.9416    1.7017    1.6204 C   0  0  0  0  0  0  0  0  0  0  0  0
    6.0264    1.4679    2.9918 C   0  0  0  0  0  0  0  0  0  0  0  0
    4.9421    0.9080    3.6689 C   0  0  0  0  0  0  0  0  0  0  0  0
    3.7786    0.5765    2.9772 C   0  0  0  0  0  0  0  0  0  0  0  0
   -1.0332    0.9974   -1.2406 C   0  0  0  0  0  0  0  0  0  0  0  0
   -0.8774    2.3172   -0.8129 C   0  0  0  0  0  0  0  0  0  0  0  0
   -0.0221    3.1958   -1.4729 C   0  0  0  0  0  0  0  0  0  0  0  0
    0.7084    2.7881   -2.5954 C   0  0  0  0  0  0  0  0  0  0  0  0
    0.5153    1.4747   -3.0412 C   0  0  0  0  0  0  0  0  0  0  0  0
   -0.3391    0.5946   -2.3827 C   0  0  0  0  0  0  0  0  0  0  0  0
    1.7174    3.6953   -3.3037 C   0  0  0  0  0  0  0  0  0  0  0  0
    1.6999    5.1196   -2.7421 C   0  0  0  0  0  0  0  0  0  0  0  0
    3.1237    3.1075   -3.0981 C   0  0  0  0  0  0  0  0  0  0  0  0
    1.4014    3.7659   -4.8056 C   0  0  0  0  0  0  0  0  0  0  0  0
   -5.7295    0.8981    3.2941 H   0  0  0  0  0  0  0  0  0  0  0  0
   -6.8663    0.5839    1.9539 H   0  0  0  0  0  0  0  0  0  0  0  0
   -6.7655    2.2147    2.6863 H   0  0  0  0  0  0  0  0  0  0  0  0
   -3.6527    2.2908    2.8741 H   0  0  0  0  0  0  0  0  0  0  0  0
   -3.3195    2.9385    1.2444 H   0  0  0  0  0  0  0  0  0  0  0  0
   -4.6262    3.6431    2.2396 H   0  0  0  0  0  0  0  0  0  0  0  0
   -3.7190    0.8976   -1.1111 H   0  0  0  0  0  0  0  0  0  0  0  0
   -6.3271    1.4488   -0.3964 H   0  0  0  0  0  0  0  0  0  0  0  0
   -6.4632    3.0699    0.3401 H   0  0  0  0  0  0  0  0  0  0  0  0
   -5.0115    2.6595   -0.5981 H   0  0  0  0  0  0  0  0  0  0  0  0
   -1.4636    0.0158    0.5870 H   0  0  0  0  0  0  0  0  0  0  0  0
   -1.9982   -5.0562   -2.1582 H   0  0  0  0  0  0  0  0  0  0  0  0
   -4.0504   -3.6877   -2.3251 H   0  0  0  0  0  0  0  0  0  0  0  0
   -4.0662   -1.3567   -1.4919 H   0  0  0  0  0  0  0  0  0  0  0  0
    4.5333   -1.5101    1.0347 H   0  0  0  0  0  0  0  0  0  0  0  0
    4.8415   -3.9048    0.4522 H   0  0  0  0  0  0  0  0  0  0  0  0
    2.9848   -5.1903   -0.5480 H   0  0  0  0  0  0  0  0  0  0  0  0
    1.0237   -6.2232   -0.1861 H   0  0  0  0  0  0  0  0  0  0  0  0
   -0.1698   -5.2573    0.7226 H   0  0  0  0  0  0  0  0  0  0  0  0
   -0.6701   -6.1747   -0.7212 H   0  0  0  0  0  0  0  0  0  0  0  0
    1.1197   -3.9592   -3.2066 H   0  0  0  0  0  0  0  0  0  0  0  0
    1.7795   -5.4599   -2.5052 H   0  0  0  0  0  0  0  0  0  0  0  0
    0.0854   -5.4030   -3.0464 H   0  0  0  0  0  0  0  0  0  0  0  0
    0.7700   -1.7093    2.3085 H   0  0  0  0  0  0  0  0  0  0  0  0
   -1.1284   -1.4897    3.8805 H   0  0  0  0  0  0  0  0  0  0  0  0
   -2.1018    0.7463    4.3688 H   0  0  0  0  0  0  0  0  0  0  0  0
   -1.1414    2.7767    3.2805 H   0  0  0  0  0  0  0  0  0  0  0  0
    0.7329    2.5507    1.6710 H   0  0  0  0  0  0  0  0  0  0  0  0
    4.7034    1.5701   -0.1436 H   0  0  0  0  0  0  0  0  0  0  0  0
    6.7836    2.1457    1.0867 H   0  0  0  0  0  0  0  0  0  0  0  0
    6.9362    1.7261    3.5362 H   0  0  0  0  0  0  0  0  0  0  0  0
    5.0036    0.7271    4.7433 H   0  0  0  0  0  0  0  0  0  0  0  0
    2.9347    0.1337    3.5113 H   0  0  0  0  0  0  0  0  0  0  0  0
   -1.4304    2.6517    0.0667 H   0  0  0  0  0  0  0  0  0  0  0  0
    0.0762    4.2117   -1.0903 H   0  0  0  0  0  0  0  0  0  0  0  0
    1.0560    1.1150   -3.9191 H   0  0  0  0  0  0  0  0  0  0  0  0
   -0.4512   -0.4228   -2.7613 H   0  0  0  0  0  0  0  0  0  0  0  0
    1.9814    5.1396   -1.6791 H   0  0  0  0  0  0  0  0  0  0  0  0
    2.4226    5.7415   -3.2906 H   0  0  0  0  0  0  0  0  0  0  0  0
    0.7069    5.5820   -2.8471 H   0  0  0  0  0  0  0  0  0  0  0  0
    3.2022    2.0976   -3.5265 H   0  0  0  0  0  0  0  0  0  0  0  0
    3.8814    3.7455   -3.5796 H   0  0  0  0  0  0  0  0  0  0  0  0
    3.3533    3.0358   -2.0244 H   0  0  0  0  0  0  0  0  0  0  0  0
    1.4514    2.7765   -5.2816 H   0  0  0  0  0  0  0  0  0  0  0  0
    0.3932    4.1733   -4.9731 H   0  0  0  0  0  0  0  0  0  0  0  0
    2.1272    4.4187   -5.3145 H   0  0  0  0  0  0  0  0  0  0  0  0
  1  2  1  0  0  0  0
  1 48  1  0  0  0  0
  1 49  1  0  0  0  0
  1 50  1  0  0  0  0
  2  3  1  0  0  0  0
  2  4  1  0  0  0  0
  2  7  1  0  0  0  0
  3 51  1  0  0  0  0
  3 52  1  0  0  0  0
  3 53  1  0  0  0  0
  4  5  2  6  0  0  0
  4  6  1  0  0  0  0
  6  8  1  0  0  0  0
  6 54  1  0  0  0  0
  7 55  1  0  0  0  0
  7 56  1  0  0  0  0
  7 57  1  0  0  0  0
  8 14  1  0  0  0  0
  8 38  1  0  0  0  0
  8 58  1  1  0  0  0
  9 10  1  0  0  0  0
  9 22  1  0  0  0  0
  9 23  1  0  0  0  0
  9 24  1  0  0  0  0
 10 11  2  0  0  0  0
 10 15  1  0  0  0  0
 11 12  1  0  0  0  0
 11 59  1  0  0  0  0
 12 13  2  0  0  0  0
 12 60  1  0  0  0  0
 13 14  1  0  0  0  0
 13 61  1  0  0  0  0
 14 15  2  0  0  0  0
 15 16  1  0  0  0  0
 16 17  1  0  0  0  0
 17 18  2  0  0  0  0
 17 22  1  0  0  0  0
 18 19  1  0  0  0  0
 18 25  1  0  0  0  0
 19 20  2  0  0  0  0
 19 62  1  0  0  0  0
 20 21  1  0  0  0  0
 20 63  1  0  0  0  0
 21 22  2  0  0  0  0
 21 64  1  0  0  0  0
 23 65  1  0  0  0  0
 23 66  1  0  0  0  0
 23 67  1  0  0  0  0
 24 68  1  0  0  0  0
 24 69  1  0  0  0  0
 24 70  1  0  0  0  0
 25 26  1  0  0  0  0
 25 32  1  0  0  0  0
 26 27  2  0  0  0  0
 26 31  1  0  0  0  0
 27 28  1  0  0  0  0
 27 71  1  0  0  0  0
 28 29  2  0  0  0  0
 28 72  1  0  0  0  0
 29 30  1  0  0  0  0
 29 73  1  0  0  0  0
 30 31  2  0  0  0  0
 30 74  1  0  0  0  0
 31 75  1  0  0  0  0
 32 33  2  0  0  0  0
 32 37  1  0  0  0  0
 33 34  1  0  0  0  0
 33 76  1  0  0  0  0
 34 35  2  0  0  0  0
 34 77  1  0  0  0  0
 35 36  1  0  0  0  0
 35 78  1  0  0  0  0
 36 37  2  0  0  0  0
 36 79  1  0  0  0  0
 37 80  1  0  0  0  0
 38 39  2  0  0  0  0
 38 43  1  0  0  0  0
 39 40  1  0  0  0  0
 39 81  1  0  0  0  0
 40 41  2  0  0  0  0
 40 82  1  0  0  0  0
 41 42  1  0  0  0  0
 41 44  1  0  0  0  0
 42 43  2  0  0  0  0
 42 83  1  0  0  0  0
 43 84  1  0  0  0  0
 44 45  1  0  0  0  0
 44 46  1  0  0  0  0
 44 47  1  0  0  0  0
 45 85  1  0  0  0  0
 45 86  1  0  0  0  0
 45 87  1  0  0  0  0
 46 88  1  0  0  0  0
 46 89  1  0  0  0  0
 46 90  1  0  0  0  0
 47 91  1  0  0  0  0
 47 92  1  0  0  0  0
 47 93  1  0  0  0  0
M  END
$$$$
