Title Card Required
 OpenBabel03192317473D

 45 49  0  0  1  0  0  0  0  0999 V2000
    0.0271    0.8390   -0.7802 O   0  0  0  0  0  0  0  0  0  0  0  0
   -0.5791   -0.3494   -0.9525 C   0  0  0  0  0  0  0  0  0  0  0  0
    0.1147   -1.3295   -1.3693 N   0  0  0  0  0  0  0  0  0  0  0  0
    1.4910   -0.8552   -1.4675 C   0  0  1  0  0  0  0  0  0  0  0  0
    1.3267    0.7093   -1.3615 C   0  0  2  0  0  0  0  0  0  0  0  0
   -2.6104    0.6570   -0.1807 N   0  0  0  0  0  0  0  0  0  0  0  0
   -2.0221   -0.4300   -0.6093 C   0  0  0  0  0  0  0  0  0  0  0  0
   -2.6754   -1.6867   -0.7632 C   0  0  0  0  0  0  0  0  0  0  0  0
   -4.0043   -1.7677   -0.4463 C   0  0  0  0  0  0  0  0  0  0  0  0
   -4.6823   -0.6110    0.0240 C   0  0  0  0  0  0  0  0  0  0  0  0
   -6.0573   -0.6045    0.3769 C   0  0  0  0  0  0  0  0  0  0  0  0
   -6.6528    0.5490    0.8270 C   0  0  0  0  0  0  0  0  0  0  0  0
   -5.9021    1.7468    0.9442 C   0  0  0  0  0  0  0  0  0  0  0  0
   -4.5710    1.7704    0.6095 C   0  0  0  0  0  0  0  0  0  0  0  0
   -3.9278    0.5920    0.1409 C   0  0  0  0  0  0  0  0  0  0  0  0
    2.3676    1.4377   -0.5627 C   0  0  0  0  0  0  0  0  0  0  0  0
    2.2837    1.4991    0.8309 C   0  0  0  0  0  0  0  0  0  0  0  0
    3.3167    2.0710    1.5679 C   0  0  0  0  0  0  0  0  0  0  0  0
    4.4393    2.5889    0.9202 C   0  0  0  0  0  0  0  0  0  0  0  0
    4.5189    2.5444   -0.4703 C   0  0  0  0  0  0  0  0  0  0  0  0
    3.4828    1.9738   -1.2086 C   0  0  0  0  0  0  0  0  0  0  0  0
    2.3751   -1.4566   -0.3914 C   0  0  0  0  0  0  0  0  0  0  0  0
    3.7649   -1.4135   -0.5467 C   0  0  0  0  0  0  0  0  0  0  0  0
    4.6072   -1.8552    0.4691 C   0  0  0  0  0  0  0  0  0  0  0  0
    4.0673   -2.3610    1.6525 C   0  0  0  0  0  0  0  0  0  0  0  0
    2.6846   -2.4269    1.8059 C   0  0  0  0  0  0  0  0  0  0  0  0
    1.8416   -1.9765    0.7890 C   0  0  0  0  0  0  0  0  0  0  0  0
    1.9136   -1.1139   -2.4491 H   0  0  0  0  0  0  0  0  0  0  0  0
    1.2760    1.1302   -2.3795 H   0  0  0  0  0  0  0  0  0  0  0  0
   -2.0984   -2.5364   -1.1264 H   0  0  0  0  0  0  0  0  0  0  0  0
   -4.5518   -2.7072   -0.5479 H   0  0  0  0  0  0  0  0  0  0  0  0
   -6.6296   -1.5299    0.2851 H   0  0  0  0  0  0  0  0  0  0  0  0
   -7.7100    0.5480    1.0966 H   0  0  0  0  0  0  0  0  0  0  0  0
   -6.3910    2.6537    1.3033 H   0  0  0  0  0  0  0  0  0  0  0  0
   -3.9658    2.6741    0.6856 H   0  0  0  0  0  0  0  0  0  0  0  0
    1.4033    1.0903    1.3289 H   0  0  0  0  0  0  0  0  0  0  0  0
    3.2472    2.1111    2.6560 H   0  0  0  0  0  0  0  0  0  0  0  0
    5.2487    3.0353    1.5000 H   0  0  0  0  0  0  0  0  0  0  0  0
    5.3878    2.9604   -0.9827 H   0  0  0  0  0  0  0  0  0  0  0  0
    3.5436    1.9399   -2.2996 H   0  0  0  0  0  0  0  0  0  0  0  0
    4.1910   -1.0097   -1.4685 H   0  0  0  0  0  0  0  0  0  0  0  0
    5.6892   -1.8057    0.3374 H   0  0  0  0  0  0  0  0  0  0  0  0
    4.7255   -2.7088    2.4502 H   0  0  0  0  0  0  0  0  0  0  0  0
    2.2556   -2.8320    2.7240 H   0  0  0  0  0  0  0  0  0  0  0  0
    0.7587   -2.0327    0.9094 H   0  0  0  0  0  0  0  0  0  0  0  0
  1  2  1  0  0  0  0
  1  5  1  0  0  0  0
  2  3  2  0  0  0  0
  2  7  1  0  0  0  0
  3  4  1  0  0  0  0
  4  5  1  0  0  0  0
  4 22  1  0  0  0  0
  4 28  1  6  0  0  0
  5 16  1  0  0  0  0
  5 29  1  6  0  0  0
  6  7  2  0  0  0  0
  6 15  1  0  0  0  0
  7  8  1  0  0  0  0
  8  9  2  0  0  0  0
  8 30  1  0  0  0  0
  9 10  1  0  0  0  0
  9 31  1  0  0  0  0
 10 11  2  0  0  0  0
 10 15  1  0  0  0  0
 11 12  1  0  0  0  0
 11 32  1  0  0  0  0
 12 13  2  0  0  0  0
 12 33  1  0  0  0  0
 13 14  1  0  0  0  0
 13 34  1  0  0  0  0
 14 15  2  0  0  0  0
 14 35  1  0  0  0  0
 16 17  2  0  0  0  0
 16 21  1  0  0  0  0
 17 18  1  0  0  0  0
 17 36  1  0  0  0  0
 18 19  2  0  0  0  0
 18 37  1  0  0  0  0
 19 20  1  0  0  0  0
 19 38  1  0  0  0  0
 20 21  2  0  0  0  0
 20 39  1  0  0  0  0
 21 40  1  0  0  0  0
 22 23  2  0  0  0  0
 22 27  1  0  0  0  0
 23 24  1  0  0  0  0
 23 41  1  0  0  0  0
 24 25  2  0  0  0  0
 24 42  1  0  0  0  0
 25 26  1  0  0  0  0
 25 43  1  0  0  0  0
 26 27  2  0  0  0  0
 26 44  1  0  0  0  0
 27 45  1  0  0  0  0
M  END
$$$$
