Title Card Required
 OpenBabel03192317443D

 85 88  0  0  1  0  0  0  0  0999 V2000
    0.9288   -2.9498   -1.3536 C   0  0  0  0  0  0  0  0  0  0  0  0
    0.9531   -1.4290   -1.1842 C   0  0  2  0  0  0  0  0  0  0  0  0
   -0.1097   -0.7220   -2.0432 C   0  0  0  0  0  0  0  0  0  0  0  0
   -1.5929   -1.0276   -1.7344 C   0  0  1  0  0  0  0  0  0  0  0  0
   -2.0930   -2.3332   -2.3602 C   0  0  0  0  0  0  0  0  0  0  0  0
    2.6398   -0.7571   -1.6719 P   0  0  0  0  0  0  0  0  0  0  0  0
    2.5252    0.9694   -1.0050 C   0  0  0  0  0  0  0  0  0  0  0  0
    2.4399    1.2440    0.3633 C   0  0  0  0  0  0  0  0  0  0  0  0
    2.3572    2.5560    0.8327 C   0  0  0  0  0  0  0  0  0  0  0  0
    2.3478    3.5991   -0.0998 C   0  0  0  0  0  0  0  0  0  0  0  0
    2.4278    3.3589   -1.4735 C   0  0  0  0  0  0  0  0  0  0  0  0
    2.5177    2.0324   -1.9128 C   0  0  0  0  0  0  0  0  0  0  0  0
    2.4651    4.4994   -2.4586 C   0  0  0  0  0  0  0  0  0  0  0  0
    2.3269    2.8344    2.3124 C   0  0  0  0  0  0  0  0  0  0  0  0
    3.7451   -1.4978   -0.3870 C   0  0  0  0  0  0  0  0  0  0  0  0
    5.1172   -1.4485   -0.6524 C   0  0  0  0  0  0  0  0  0  0  0  0
    6.0560   -1.9386    0.2611 C   0  0  0  0  0  0  0  0  0  0  0  0
    5.5916   -2.5108    1.4475 C   0  0  0  0  0  0  0  0  0  0  0  0
    4.2258   -2.5932    1.7372 C   0  0  0  0  0  0  0  0  0  0  0  0
    3.3128   -2.0763    0.8133 C   0  0  0  0  0  0  0  0  0  0  0  0
    3.7501   -3.2525    3.0063 C   0  0  0  0  0  0  0  0  0  0  0  0
    7.5319   -1.8317   -0.0228 C   0  0  0  0  0  0  0  0  0  0  0  0
   -1.9401   -1.0242    0.1127 P   0  0  0  0  0  0  0  0  0  0  0  0
   -1.7513    0.7612    0.5556 C   0  0  0  0  0  0  0  0  0  0  0  0
   -1.7181    1.0595    1.9223 C   0  0  0  0  0  0  0  0  0  0  0  0
   -1.6545    2.3797    2.3797 C   0  0  0  0  0  0  0  0  0  0  0  0
   -1.5983    3.4076    1.4362 C   0  0  0  0  0  0  0  0  0  0  0  0
   -1.6101    3.1441    0.0634 C   0  0  0  0  0  0  0  0  0  0  0  0
   -1.6889    1.8165   -0.3626 C   0  0  0  0  0  0  0  0  0  0  0  0
   -1.5768    4.2666   -0.9400 C   0  0  0  0  0  0  0  0  0  0  0  0
   -1.6418    2.6736    3.8577 C   0  0  0  0  0  0  0  0  0  0  0  0
   -3.7858   -1.1544    0.0851 C   0  0  0  0  0  0  0  0  0  0  0  0
   -4.3435   -2.4164    0.3176 C   0  0  0  0  0  0  0  0  0  0  0  0
   -5.7273   -2.6152    0.2835 C   0  0  0  0  0  0  0  0  0  0  0  0
   -6.5496   -1.5146    0.0276 C   0  0  0  0  0  0  0  0  0  0  0  0
   -6.0231   -0.2386   -0.1959 C   0  0  0  0  0  0  0  0  0  0  0  0
   -4.6355   -0.0719   -0.1641 C   0  0  0  0  0  0  0  0  0  0  0  0
   -6.9403    0.9254   -0.4705 C   0  0  0  0  0  0  0  0  0  0  0  0
   -6.3278   -3.9765    0.5236 C   0  0  0  0  0  0  0  0  0  0  0  0
    0.8275   -3.2190   -2.4165 H   0  0  0  0  0  0  0  0  0  0  0  0
    0.0806   -3.3848   -0.8045 H   0  0  0  0  0  0  0  0  0  0  0  0
    1.8453   -3.4232   -0.9735 H   0  0  0  0  0  0  0  0  0  0  0  0
    0.7828   -1.1664   -0.1258 H   0  0  0  0  0  0  0  0  0  0  0  0
    0.0480    0.3629   -1.9515 H   0  0  0  0  0  0  0  0  0  0  0  0
    0.0758   -0.9694   -3.1044 H   0  0  0  0  0  0  0  0  0  0  0  0
   -2.1951   -0.2178   -2.1789 H   0  0  0  0  0  0  0  0  0  0  0  0
   -1.6862   -3.2261   -1.8652 H   0  0  0  0  0  0  0  0  0  0  0  0
   -3.1893   -2.3948   -2.3104 H   0  0  0  0  0  0  0  0  0  0  0  0
   -1.7999   -2.3759   -3.4206 H   0  0  0  0  0  0  0  0  0  0  0  0
    2.4578    0.4222    1.0850 H   0  0  0  0  0  0  0  0  0  0  0  0
    2.2790    4.6312    0.2583 H   0  0  0  0  0  0  0  0  0  0  0  0
    2.5904    1.8226   -2.9842 H   0  0  0  0  0  0  0  0  0  0  0  0
    1.9435    5.3836   -2.0676 H   0  0  0  0  0  0  0  0  0  0  0  0
    3.5040    4.7951   -2.6729 H   0  0  0  0  0  0  0  0  0  0  0  0
    2.0005    4.2171   -3.4137 H   0  0  0  0  0  0  0  0  0  0  0  0
    1.8643    3.8068    2.5291 H   0  0  0  0  0  0  0  0  0  0  0  0
    1.7621    2.0575    2.8453 H   0  0  0  0  0  0  0  0  0  0  0  0
    3.3485    2.8475    2.7242 H   0  0  0  0  0  0  0  0  0  0  0  0
    5.4638   -1.0145   -1.5953 H   0  0  0  0  0  0  0  0  0  0  0  0
    6.3134   -2.9104    2.1660 H   0  0  0  0  0  0  0  0  0  0  0  0
    2.2461   -2.1363    1.0450 H   0  0  0  0  0  0  0  0  0  0  0  0
    3.6841   -4.3441    2.8776 H   0  0  0  0  0  0  0  0  0  0  0  0
    4.4416   -3.0604    3.8381 H   0  0  0  0  0  0  0  0  0  0  0  0
    2.7535   -2.8921    3.2944 H   0  0  0  0  0  0  0  0  0  0  0  0
    7.9145   -0.8428    0.2742 H   0  0  0  0  0  0  0  0  0  0  0  0
    8.1014   -2.5894    0.5317 H   0  0  0  0  0  0  0  0  0  0  0  0
    7.7401   -1.9569   -1.0941 H   0  0  0  0  0  0  0  0  0  0  0  0
   -1.7559    0.2420    2.6493 H   0  0  0  0  0  0  0  0  0  0  0  0
   -1.5380    4.4447    1.7799 H   0  0  0  0  0  0  0  0  0  0  0  0
   -1.7148    1.6214   -1.4365 H   0  0  0  0  0  0  0  0  0  0  0  0
   -2.5974    4.5718   -1.2206 H   0  0  0  0  0  0  0  0  0  0  0  0
   -1.0659    5.1500   -0.5324 H   0  0  0  0  0  0  0  0  0  0  0  0
   -1.0548    3.9600   -1.8568 H   0  0  0  0  0  0  0  0  0  0  0  0
   -1.5762    3.7527    4.0503 H   0  0  0  0  0  0  0  0  0  0  0  0
   -2.5552    2.2957    4.3404 H   0  0  0  0  0  0  0  0  0  0  0  0
   -0.7875    2.1870    4.3516 H   0  0  0  0  0  0  0  0  0  0  0  0
   -3.6843   -3.2619    0.5357 H   0  0  0  0  0  0  0  0  0  0  0  0
   -7.6351   -1.6536    0.0099 H   0  0  0  0  0  0  0  0  0  0  0  0
   -4.2138    0.9237   -0.3265 H   0  0  0  0  0  0  0  0  0  0  0  0
   -7.4610    0.7971   -1.4315 H   0  0  0  0  0  0  0  0  0  0  0  0
   -7.7102    1.0155    0.3095 H   0  0  0  0  0  0  0  0  0  0  0  0
   -6.3827    1.8701   -0.5109 H   0  0  0  0  0  0  0  0  0  0  0  0
   -7.0596   -3.9456    1.3440 H   0  0  0  0  0  0  0  0  0  0  0  0
   -6.8553   -4.3370   -0.3722 H   0  0  0  0  0  0  0  0  0  0  0  0
   -5.5559   -4.7130    0.7816 H   0  0  0  0  0  0  0  0  0  0  0  0
  1  2  1  0  0  0  0
  1 40  1  0  0  0  0
  1 41  1  0  0  0  0
  1 42  1  0  0  0  0
  2  3  1  0  0  0  0
  2  6  1  0  0  0  0
  2 43  1  1  0  0  0
  3  4  1  0  0  0  0
  3 44  1  0  0  0  0
  3 45  1  0  0  0  0
  4  5  1  0  0  0  0
  4 23  1  0  0  0  0
  4 46  1  6  0  0  0
  5 47  1  0  0  0  0
  5 48  1  0  0  0  0
  5 49  1  0  0  0  0
  6  7  1  0  0  0  0
  6 15  1  0  0  0  0
  7  8  2  0  0  0  0
  7 12  1  0  0  0  0
  8  9  1  0  0  0  0
  8 50  1  0  0  0  0
  9 10  2  0  0  0  0
  9 14  1  0  0  0  0
 10 11  1  0  0  0  0
 10 51  1  0  0  0  0
 11 12  2  0  0  0  0
 11 13  1  0  0  0  0
 12 52  1  0  0  0  0
 13 53  1  0  0  0  0
 13 54  1  0  0  0  0
 13 55  1  0  0  0  0
 14 56  1  0  0  0  0
 14 57  1  0  0  0  0
 14 58  1  0  0  0  0
 15 16  2  0  0  0  0
 15 20  1  0  0  0  0
 16 17  1  0  0  0  0
 16 59  1  0  0  0  0
 17 18  2  0  0  0  0
 17 22  1  0  0  0  0
 18 19  1  0  0  0  0
 18 60  1  0  0  0  0
 19 20  2  0  0  0  0
 19 21  1  0  0  0  0
 20 61  1  0  0  0  0
 21 62  1  0  0  0  0
 21 63  1  0  0  0  0
 21 64  1  0  0  0  0
 22 65  1  0  0  0  0
 22 66  1  0  0  0  0
 22 67  1  0  0  0  0
 23 24  1  0  0  0  0
 23 32  1  0  0  0  0
 24 25  2  0  0  0  0
 24 29  1  0  0  0  0
 25 26  1  0  0  0  0
 25 68  1  0  0  0  0
 26 27  2  0  0  0  0
 26 31  1  0  0  0  0
 27 28  1  0  0  0  0
 27 69  1  0  0  0  0
 28 29  2  0  0  0  0
 28 30  1  0  0  0  0
 29 70  1  0  0  0  0
 30 71  1  0  0  0  0
 30 72  1  0  0  0  0
 30 73  1  0  0  0  0
 31 74  1  0  0  0  0
 31 75  1  0  0  0  0
 31 76  1  0  0  0  0
 32 33  2  0  0  0  0
 32 37  1  0  0  0  0
 33 34  1  0  0  0  0
 33 77  1  0  0  0  0
 34 35  2  0  0  0  0
 34 39  1  0  0  0  0
 35 36  1  0  0  0  0
 35 78  1  0  0  0  0
 36 37  2  0  0  0  0
 36 38  1  0  0  0  0
 37 79  1  0  0  0  0
 38 80  1  0  0  0  0
 38 81  1  0  0  0  0
 38 82  1  0  0  0  0
 39 83  1  0  0  0  0
 39 84  1  0  0  0  0
 39 85  1  0  0  0  0
M  END
$$$$
