Title Card Required
 OpenBabel03192317533D

 44 46  0  0  1  0  0  0  0  0999 V2000
    0.4916    1.9706   -0.5960 C   0  0  1  0  0  0  0  0  0  0  0  0
   -0.4914    1.9706    0.5960 C   0  0  1  0  0  0  0  0  0  0  0  0
   -1.3644    3.2295    0.5512 C   0  0  0  0  0  0  0  0  0  0  0  0
   -0.5024    4.4907    0.5755 C   0  0  0  0  0  0  0  0  0  0  0  0
    0.5027    4.4907   -0.5755 C   0  0  0  0  0  0  0  0  0  0  0  0
    1.3647    3.2294   -0.5512 C   0  0  0  0  0  0  0  0  0  0  0  0
    2.7606   -1.0016    0.0519 C   0  0  0  0  0  0  0  0  0  0  0  0
    3.6143   -1.5233    1.0244 C   0  0  0  0  0  0  0  0  0  0  0  0
    4.2681   -2.7199    0.7487 C   0  0  0  0  0  0  0  0  0  0  0  0
    4.0403   -3.3405   -0.4777 C   0  0  0  0  0  0  0  0  0  0  0  0
    3.1645   -2.7342   -1.3798 C   0  0  0  0  0  0  0  0  0  0  0  0
    2.5382   -1.5900   -1.1228 N   0  0  0  0  0  0  0  0  0  0  0  0
    2.0523    0.3056    0.3474 C   0  0  0  0  0  0  0  0  0  0  0  0
    2.2102    0.8681    1.4188 O   0  0  0  0  0  0  0  0  0  0  0  0
    1.2763    0.7510   -0.6571 N   0  0  0  0  0  0  0  0  0  0  0  0
   -2.7606   -1.0014   -0.0520 C   0  0  0  0  0  0  0  0  0  0  0  0
   -3.6143   -1.5230   -1.0245 C   0  0  0  0  0  0  0  0  0  0  0  0
   -4.2684   -2.7194   -0.7487 C   0  0  0  0  0  0  0  0  0  0  0  0
   -4.0409   -3.3400    0.4778 C   0  0  0  0  0  0  0  0  0  0  0  0
   -3.1651   -2.7336    1.3799 C   0  0  0  0  0  0  0  0  0  0  0  0
   -2.5386   -1.5896    1.1229 N   0  0  0  0  0  0  0  0  0  0  0  0
   -2.0521    0.3057   -0.3474 C   0  0  0  0  0  0  0  0  0  0  0  0
   -2.2098    0.8682   -1.4190 O   0  0  0  0  0  0  0  0  0  0  0  0
   -1.2761    0.7510    0.6570 N   0  0  0  0  0  0  0  0  0  0  0  0
   -0.1162    1.9884   -1.5115 H   0  0  0  0  0  0  0  0  0  0  0  0
    0.1164    1.9884    1.5115 H   0  0  0  0  0  0  0  0  0  0  0  0
   -1.9758    3.1999   -0.3650 H   0  0  0  0  0  0  0  0  0  0  0  0
   -2.0549    3.2114    1.4077 H   0  0  0  0  0  0  0  0  0  0  0  0
   -1.1406    5.3858    0.5315 H   0  0  0  0  0  0  0  0  0  0  0  0
    0.0459    4.5369    1.5322 H   0  0  0  0  0  0  0  0  0  0  0  0
   -0.0455    4.5369   -1.5322 H   0  0  0  0  0  0  0  0  0  0  0  0
    1.1410    5.3857   -0.5315 H   0  0  0  0  0  0  0  0  0  0  0  0
    1.9761    3.1998    0.3650 H   0  0  0  0  0  0  0  0  0  0  0  0
    2.0552    3.2113   -1.4077 H   0  0  0  0  0  0  0  0  0  0  0  0
    3.7387   -0.9764    1.9586 H   0  0  0  0  0  0  0  0  0  0  0  0
    4.9478   -3.1629    1.4785 H   0  0  0  0  0  0  0  0  0  0  0  0
    4.5317   -4.2783   -0.7378 H   0  0  0  0  0  0  0  0  0  0  0  0
    2.9642   -3.1954   -2.3513 H   0  0  0  0  0  0  0  0  0  0  0  0
    1.2186    0.1483   -1.4711 H   0  0  0  0  0  0  0  0  0  0  0  0
   -3.7384   -0.9762   -1.9588 H   0  0  0  0  0  0  0  0  0  0  0  0
   -4.9480   -3.1624   -1.4786 H   0  0  0  0  0  0  0  0  0  0  0  0
   -4.5325   -4.2777    0.7379 H   0  0  0  0  0  0  0  0  0  0  0  0
   -2.9651   -3.1948    2.3516 H   0  0  0  0  0  0  0  0  0  0  0  0
   -1.2187    0.1485    1.4711 H   0  0  0  0  0  0  0  0  0  0  0  0
  1  2  1  0  0  0  0
  1  6  1  0  0  0  0
  1 15  1  0  0  0  0
  1 25  1  6  0  0  0
  2  3  1  0  0  0  0
  2 24  1  0  0  0  0
  2 26  1  1  0  0  0
  3  4  1  0  0  0  0
  3 27  1  0  0  0  0
  3 28  1  0  0  0  0
  4  5  1  0  0  0  0
  4 29  1  0  0  0  0
  4 30  1  0  0  0  0
  5  6  1  0  0  0  0
  5 31  1  0  0  0  0
  5 32  1  0  0  0  0
  6 33  1  0  0  0  0
  6 34  1  0  0  0  0
  7  8  2  0  0  0  0
  7 12  1  0  0  0  0
  7 13  1  0  0  0  0
  8  9  1  0  0  0  0
  8 35  1  0  0  0  0
  9 10  2  0  0  0  0
  9 36  1  0  0  0  0
 10 11  1  0  0  0  0
 10 37  1  0  0  0  0
 11 12  2  0  0  0  0
 11 38  1  0  0  0  0
 13 14  2  0  0  0  0
 13 15  1  0  0  0  0
 15 39  1  0  0  0  0
 16 17  2  0  0  0  0
 16 21  1  0  0  0  0
 16 22  1  0  0  0  0
 17 18  1  0  0  0  0
 17 40  1  0  0  0  0
 18 19  2  0  0  0  0
 18 41  1  0  0  0  0
 19 20  1  0  0  0  0
 19 42  1  0  0  0  0
 20 21  2  0  0  0  0
 20 43  1  0  0  0  0
 22 23  2  0  0  0  0
 22 24  1  0  0  0  0
 24 44  1  0  0  0  0
M  END
$$$$
