Title Card Required
 OpenBabel03192317443D

 54 58  0  0  1  0  0  0  0  0999 V2000
   -0.1279    0.6940    0.1411 C   0  0  0  0  0  0  0  0  0  0  0  0
   -0.2268    1.5778   -1.1211 C   0  0  0  0  0  0  0  0  0  0  0  0
    0.8365    2.6758   -1.1720 C   0  0  0  0  0  0  0  0  0  0  0  0
    0.8697    3.4970    0.1162 C   0  0  0  0  0  0  0  0  0  0  0  0
    1.0475    2.5952    1.3370 C   0  0  0  0  0  0  0  0  0  0  0  0
   -0.0690    1.5579    1.4147 C   0  0  0  0  0  0  0  0  0  0  0  0
   -1.3424   -1.1853   -0.7460 O   0  0  0  0  0  0  0  0  0  0  0  0
   -1.3374   -0.2054    0.1856 C   0  0  0  0  0  0  0  0  0  0  0  0
   -2.3311   -0.1067    0.9626 N   0  0  0  0  0  0  0  0  0  0  0  0
   -3.2699   -1.1646    0.5996 C   0  0  2  0  0  0  0  0  0  0  0  0
   -2.5690   -1.8977   -0.5855 C   0  0  0  0  0  0  0  0  0  0  0  0
    1.1510   -1.0865    1.1183 O   0  0  0  0  0  0  0  0  0  0  0  0
    1.0776   -0.2117    0.0877 C   0  0  0  0  0  0  0  0  0  0  0  0
    1.9898   -0.2426   -0.7890 N   0  0  0  0  0  0  0  0  0  0  0  0
    2.9104   -1.3138   -0.4185 C   0  0  2  0  0  0  0  0  0  0  0  0
    2.3625   -1.8206    0.9488 C   0  0  0  0  0  0  0  0  0  0  0  0
    4.3566   -0.8739   -0.3492 C   0  0  0  0  0  0  0  0  0  0  0  0
   -4.6479   -0.6456    0.2427 C   0  0  0  0  0  0  0  0  0  0  0  0
   -4.8914    0.7148    0.0472 C   0  0  0  0  0  0  0  0  0  0  0  0
   -6.1619    1.1557   -0.3260 C   0  0  0  0  0  0  0  0  0  0  0  0
   -7.1994    0.2435   -0.5060 C   0  0  0  0  0  0  0  0  0  0  0  0
   -6.9638   -1.1173   -0.3058 C   0  0  0  0  0  0  0  0  0  0  0  0
   -5.6966   -1.5560    0.0690 C   0  0  0  0  0  0  0  0  0  0  0  0
    4.7144    0.4752   -0.3762 C   0  0  0  0  0  0  0  0  0  0  0  0
    6.0542    0.8502   -0.2676 C   0  0  0  0  0  0  0  0  0  0  0  0
    7.0473   -0.1173   -0.1299 C   0  0  0  0  0  0  0  0  0  0  0  0
    6.6963   -1.4675   -0.1046 C   0  0  0  0  0  0  0  0  0  0  0  0
    5.3597   -1.8410   -0.2176 C   0  0  0  0  0  0  0  0  0  0  0  0
   -0.1679    0.9362   -2.0111 H   0  0  0  0  0  0  0  0  0  0  0  0
   -1.2292    2.0391   -1.1058 H   0  0  0  0  0  0  0  0  0  0  0  0
    1.8171    2.2083   -1.3426 H   0  0  0  0  0  0  0  0  0  0  0  0
    0.6360    3.3266   -2.0365 H   0  0  0  0  0  0  0  0  0  0  0  0
    1.6745    4.2460    0.0678 H   0  0  0  0  0  0  0  0  0  0  0  0
   -0.0771    4.0554    0.2216 H   0  0  0  0  0  0  0  0  0  0  0  0
    2.0272    2.0878    1.2802 H   0  0  0  0  0  0  0  0  0  0  0  0
    1.0579    3.1927    2.2606 H   0  0  0  0  0  0  0  0  0  0  0  0
   -1.0451    2.0555    1.5182 H   0  0  0  0  0  0  0  0  0  0  0  0
    0.0431    0.8999    2.2874 H   0  0  0  0  0  0  0  0  0  0  0  0
   -3.3783   -1.8434    1.4610 H   0  0  0  0  0  0  0  0  0  0  0  0
   -2.3403   -2.9498   -0.3693 H   0  0  0  0  0  0  0  0  0  0  0  0
   -3.1438   -1.8334   -1.5199 H   0  0  0  0  0  0  0  0  0  0  0  0
    2.8338   -2.1067   -1.1811 H   0  0  0  0  0  0  0  0  0  0  0  0
    2.1323   -2.8937    0.9582 H   0  0  0  0  0  0  0  0  0  0  0  0
    3.0417   -1.5851    1.7812 H   0  0  0  0  0  0  0  0  0  0  0  0
   -4.0780    1.4249    0.2014 H   0  0  0  0  0  0  0  0  0  0  0  0
   -6.3415    2.2218   -0.4744 H   0  0  0  0  0  0  0  0  0  0  0  0
   -8.1917    0.5906   -0.7980 H   0  0  0  0  0  0  0  0  0  0  0  0
   -7.7717   -1.8390   -0.4371 H   0  0  0  0  0  0  0  0  0  0  0  0
   -5.5186   -2.6225    0.2332 H   0  0  0  0  0  0  0  0  0  0  0  0
    3.9337    1.2278   -0.4951 H   0  0  0  0  0  0  0  0  0  0  0  0
    6.3224    1.9076   -0.2943 H   0  0  0  0  0  0  0  0  0  0  0  0
    8.0941    0.1783   -0.0461 H   0  0  0  0  0  0  0  0  0  0  0  0
    7.4679   -2.2323   -0.0018 H   0  0  0  0  0  0  0  0  0  0  0  0
    5.0904   -2.9009   -0.2079 H   0  0  0  0  0  0  0  0  0  0  0  0
  1  2  1  0  0  0  0
  1  6  1  0  0  0  0
  1  8  1  0  0  0  0
  1 13  1  0  0  0  0
  2  3  1  0  0  0  0
  2 29  1  0  0  0  0
  2 30  1  0  0  0  0
  3  4  1  0  0  0  0
  3 31  1  0  0  0  0
  3 32  1  0  0  0  0
  4  5  1  0  0  0  0
  4 33  1  0  0  0  0
  4 34  1  0  0  0  0
  5  6  1  0  0  0  0
  5 35  1  0  0  0  0
  5 36  1  0  0  0  0
  6 37  1  0  0  0  0
  6 38  1  0  0  0  0
  7  8  1  0  0  0  0
  7 11  1  0  0  0  0
  8  9  2  0  0  0  0
  9 10  1  0  0  0  0
 10 11  1  0  0  0  0
 10 18  1  0  0  0  0
 10 39  1  1  0  0  0
 11 40  1  0  0  0  0
 11 41  1  0  0  0  0
 12 13  1  0  0  0  0
 12 16  1  0  0  0  0
 13 14  2  0  0  0  0
 14 15  1  0  0  0  0
 15 16  1  0  0  0  0
 15 17  1  0  0  0  0
 15 42  1  6  0  0  0
 16 43  1  0  0  0  0
 16 44  1  0  0  0  0
 17 24  2  0  0  0  0
 17 28  1  0  0  0  0
 18 19  2  0  0  0  0
 18 23  1  0  0  0  0
 19 20  1  0  0  0  0
 19 45  1  0  0  0  0
 20 21  2  0  0  0  0
 20 46  1  0  0  0  0
 21 22  1  0  0  0  0
 21 47  1  0  0  0  0
 22 23  2  0  0  0  0
 22 48  1  0  0  0  0
 23 49  1  0  0  0  0
 24 25  1  0  0  0  0
 24 50  1  0  0  0  0
 25 26  2  0  0  0  0
 25 51  1  0  0  0  0
 26 27  1  0  0  0  0
 26 52  1  0  0  0  0
 27 28  2  0  0  0  0
 27 53  1  0  0  0  0
 28 54  1  0  0  0  0
M  END
$$$$
