Title Card Required
 OpenBabel03192317413D

 57 61  0  0  1  0  0  0  0  0999 V2000
    1.0056   -2.1611    0.0401 C   0  0  0  0  0  0  0  0  0  0  0  0
    0.3590   -0.9789    0.5069 O   0  0  0  0  0  0  0  0  0  0  0  0
    0.7397    0.0168   -0.3271 C   0  0  0  0  0  0  0  0  0  0  0  0
    0.0299    1.3333   -0.1202 C   0  0  0  0  0  0  0  0  0  0  0  0
    0.5494    2.3673   -1.1479 C   0  0  0  0  0  0  0  0  0  0  0  0
    0.3095    3.8384   -0.7939 C   0  0  0  0  0  0  0  0  0  0  0  0
    1.4412    4.4460    0.0406 C   0  0  0  0  0  0  0  0  0  0  0  0
    1.5486    3.9477    1.4811 C   0  0  0  0  0  0  0  0  0  0  0  0
    1.5579    2.4270    1.6639 C   0  0  0  0  0  0  0  0  0  0  0  0
    0.2057    1.7762    1.3518 C   0  0  0  0  0  0  0  0  0  0  0  0
   -1.4300    1.0746   -0.4107 C   0  0  0  0  0  0  0  0  0  0  0  0
   -1.8874    0.1110   -1.0939 N   0  0  0  0  0  0  0  0  0  0  0  0
   -3.3412    0.2389   -1.1011 C   0  0  1  0  0  0  0  0  0  0  0  0
   -4.0117   -0.8926   -0.3441 C   0  0  0  0  0  0  0  0  0  0  0  0
   -3.5855    1.6342   -0.4548 C   0  0  0  0  0  0  0  0  0  0  0  0
   -2.3036    1.9903    0.0669 O   0  0  0  0  0  0  0  0  0  0  0  0
    1.6499   -0.2301   -1.1717 N   0  0  0  0  0  0  0  0  0  0  0  0
    2.0495   -1.6212   -0.9784 C   0  0  1  0  0  0  0  0  0  0  0  0
    3.4881   -1.7556   -0.5115 C   0  0  0  0  0  0  0  0  0  0  0  0
    4.2852   -0.6411   -0.2471 C   0  0  0  0  0  0  0  0  0  0  0  0
    5.6005   -0.8025    0.1918 C   0  0  0  0  0  0  0  0  0  0  0  0
    6.1330   -2.0775    0.3667 C   0  0  0  0  0  0  0  0  0  0  0  0
    5.3438   -3.1967    0.0979 C   0  0  0  0  0  0  0  0  0  0  0  0
    4.0324   -3.0343   -0.3400 C   0  0  0  0  0  0  0  0  0  0  0  0
   -3.3078   -1.6597    0.5881 C   0  0  0  0  0  0  0  0  0  0  0  0
   -3.9643   -2.6543    1.3141 C   0  0  0  0  0  0  0  0  0  0  0  0
   -5.3227   -2.8942    1.1153 C   0  0  0  0  0  0  0  0  0  0  0  0
   -6.0276   -2.1358    0.1803 C   0  0  0  0  0  0  0  0  0  0  0  0
   -5.3730   -1.1439   -0.5459 C   0  0  0  0  0  0  0  0  0  0  0  0
    0.2493   -2.8013   -0.4372 H   0  0  0  0  0  0  0  0  0  0  0  0
    1.4563   -2.6843    0.8933 H   0  0  0  0  0  0  0  0  0  0  0  0
    1.6266    2.1923   -1.2794 H   0  0  0  0  0  0  0  0  0  0  0  0
    0.0991    2.1150   -2.1192 H   0  0  0  0  0  0  0  0  0  0  0  0
    0.2397    4.4071   -1.7332 H   0  0  0  0  0  0  0  0  0  0  0  0
   -0.6629    3.9633   -0.2896 H   0  0  0  0  0  0  0  0  0  0  0  0
    2.3922    4.2452   -0.4828 H   0  0  0  0  0  0  0  0  0  0  0  0
    1.3307    5.5417    0.0601 H   0  0  0  0  0  0  0  0  0  0  0  0
    2.4601    4.3732    1.9297 H   0  0  0  0  0  0  0  0  0  0  0  0
    0.7039    4.3511    2.0663 H   0  0  0  0  0  0  0  0  0  0  0  0
    2.3566    1.9649    1.0570 H   0  0  0  0  0  0  0  0  0  0  0  0
    1.8139    2.2098    2.7114 H   0  0  0  0  0  0  0  0  0  0  0  0
   -0.5996    2.4826    1.5969 H   0  0  0  0  0  0  0  0  0  0  0  0
    0.0444    0.8915    1.9836 H   0  0  0  0  0  0  0  0  0  0  0  0
   -3.7085    0.2248   -2.1384 H   0  0  0  0  0  0  0  0  0  0  0  0
   -3.8844    2.3938   -1.1916 H   0  0  0  0  0  0  0  0  0  0  0  0
   -4.3117    1.6117    0.3676 H   0  0  0  0  0  0  0  0  0  0  0  0
    1.9556   -2.1534   -1.9376 H   0  0  0  0  0  0  0  0  0  0  0  0
    3.8671    0.3546   -0.3990 H   0  0  0  0  0  0  0  0  0  0  0  0
    6.2131    0.0771    0.3968 H   0  0  0  0  0  0  0  0  0  0  0  0
    7.1613   -2.2012    0.7096 H   0  0  0  0  0  0  0  0  0  0  0  0
    5.7543   -4.1998    0.2261 H   0  0  0  0  0  0  0  0  0  0  0  0
    3.4213   -3.9149   -0.5578 H   0  0  0  0  0  0  0  0  0  0  0  0
   -2.2401   -1.4791    0.7323 H   0  0  0  0  0  0  0  0  0  0  0  0
   -3.4064   -3.2489    2.0396 H   0  0  0  0  0  0  0  0  0  0  0  0
   -5.8320   -3.6745    1.6830 H   0  0  0  0  0  0  0  0  0  0  0  0
   -7.0894   -2.3225    0.0115 H   0  0  0  0  0  0  0  0  0  0  0  0
   -5.9266   -0.5573   -1.2841 H   0  0  0  0  0  0  0  0  0  0  0  0
  1  2  1  0  0  0  0
  1 18  1  0  0  0  0
  1 30  1  0  0  0  0
  1 31  1  0  0  0  0
  2  3  1  0  0  0  0
  3  4  1  0  0  0  0
  3 17  2  0  0  0  0
  4  5  1  0  0  0  0
  4 10  1  0  0  0  0
  4 11  1  0  0  0  0
  5  6  1  0  0  0  0
  5 32  1  0  0  0  0
  5 33  1  0  0  0  0
  6  7  1  0  0  0  0
  6 34  1  0  0  0  0
  6 35  1  0  0  0  0
  7  8  1  0  0  0  0
  7 36  1  0  0  0  0
  7 37  1  0  0  0  0
  8  9  1  0  0  0  0
  8 38  1  0  0  0  0
  8 39  1  0  0  0  0
  9 10  1  0  0  0  0
  9 40  1  0  0  0  0
  9 41  1  0  0  0  0
 10 42  1  0  0  0  0
 10 43  1  0  0  0  0
 11 12  2  0  0  0  0
 11 16  1  0  0  0  0
 12 13  1  0  0  0  0
 13 14  1  0  0  0  0
 13 15  1  0  0  0  0
 13 44  1  6  0  0  0
 14 25  2  0  0  0  0
 14 29  1  0  0  0  0
 15 16  1  0  0  0  0
 15 45  1  0  0  0  0
 15 46  1  0  0  0  0
 17 18  1  0  0  0  0
 18 19  1  0  0  0  0
 18 47  1  6  0  0  0
 19 20  2  0  0  0  0
 19 24  1  0  0  0  0
 20 21  1  0  0  0  0
 20 48  1  0  0  0  0
 21 22  2  0  0  0  0
 21 49  1  0  0  0  0
 22 23  1  0  0  0  0
 22 50  1  0  0  0  0
 23 24  2  0  0  0  0
 23 51  1  0  0  0  0
 24 52  1  0  0  0  0
 25 26  1  0  0  0  0
 25 53  1  0  0  0  0
 26 27  2  0  0  0  0
 26 54  1  0  0  0  0
 27 28  1  0  0  0  0
 27 55  1  0  0  0  0
 28 29  2  0  0  0  0
 28 56  1  0  0  0  0
 29 57  1  0  0  0  0
M  END
$$$$
