Title Card Required
 OpenBabel03192317473D

 76 83  0  0  0  0  0  0  0  0999 V2000
    1.6346    2.2921   -2.5805 C   0  0  0  0  0  0  0  0  0  0  0  0
    0.5135    2.3054   -1.7017 C   0  0  0  0  0  0  0  0  0  0  0  0
    0.5719    1.5730   -0.4770 C   0  0  0  0  0  0  0  0  0  0  0  0
    1.7126    0.8581   -0.1601 C   0  0  0  0  0  0  0  0  0  0  0  0
    2.8381    0.8233   -1.0455 C   0  0  0  0  0  0  0  0  0  0  0  0
    2.7805    1.5403   -2.2192 C   0  0  0  0  0  0  0  0  0  0  0  0
    1.5806    3.0251   -3.7973 C   0  0  0  0  0  0  0  0  0  0  0  0
    0.4648    3.7513   -4.1308 C   0  0  0  0  0  0  0  0  0  0  0  0
   -0.6478    3.7747   -3.2537 C   0  0  0  0  0  0  0  0  0  0  0  0
   -0.6263    3.0723   -2.0731 C   0  0  0  0  0  0  0  0  0  0  0  0
   -0.5719    1.5731    0.4770 C   0  0  0  0  0  0  0  0  0  0  0  0
   -0.5135    2.3056    1.7016 C   0  0  0  0  0  0  0  0  0  0  0  0
   -1.6347    2.2923    2.5804 C   0  0  0  0  0  0  0  0  0  0  0  0
   -2.7805    1.5405    2.2191 C   0  0  0  0  0  0  0  0  0  0  0  0
   -2.8381    0.8234    1.0455 C   0  0  0  0  0  0  0  0  0  0  0  0
   -1.7127    0.8581    0.1601 C   0  0  0  0  0  0  0  0  0  0  0  0
    0.6263    3.0725    2.0730 C   0  0  0  0  0  0  0  0  0  0  0  0
    0.6477    3.7750    3.2534 C   0  0  0  0  0  0  0  0  0  0  0  0
   -0.4649    3.7517    4.1305 C   0  0  0  0  0  0  0  0  0  0  0  0
   -1.5806    3.0254    3.7972 C   0  0  0  0  0  0  0  0  0  0  0  0
    1.7407    0.2054    1.0244 O   0  0  0  0  0  0  0  0  0  0  0  0
   -1.7407    0.2053   -1.0244 O   0  0  0  0  0  0  0  0  0  0  0  0
    4.0453    0.0265   -0.7019 C   0  0  0  0  0  0  0  0  0  0  0  0
   -4.0453    0.0265    0.7019 C   0  0  0  0  0  0  0  0  0  0  0  0
    3.9439   -1.3204   -0.3181 C   0  0  0  0  0  0  0  0  0  0  0  0
    5.0816   -2.0677   -0.0270 C   0  0  0  0  0  0  0  0  0  0  0  0
    6.3600   -1.5004   -0.1116 C   0  0  0  0  0  0  0  0  0  0  0  0
    5.3242    0.5939   -0.7845 C   0  0  0  0  0  0  0  0  0  0  0  0
   -5.3242    0.5940    0.7845 C   0  0  0  0  0  0  0  0  0  0  0  0
   -6.4595   -0.1562    0.4984 C   0  0  0  0  0  0  0  0  0  0  0  0
   -6.3600   -1.5004    0.1117 C   0  0  0  0  0  0  0  0  0  0  0  0
   -5.0816   -2.0677    0.0272 C   0  0  0  0  0  0  0  0  0  0  0  0
   -3.9439   -1.3204    0.3183 C   0  0  0  0  0  0  0  0  0  0  0  0
    6.4595   -0.1563   -0.4984 C   0  0  0  0  0  0  0  0  0  0  0  0
    7.5749   -2.2967    0.1981 C   0  0  0  0  0  0  0  0  0  0  0  0
   -7.5749   -2.2968   -0.1980 C   0  0  0  0  0  0  0  0  0  0  0  0
    7.6578   -3.6499   -0.1591 C   0  0  0  0  0  0  0  0  0  0  0  0
    8.7998   -4.3940    0.1275 C   0  0  0  0  0  0  0  0  0  0  0  0
    9.8804   -3.7991    0.7776 C   0  0  0  0  0  0  0  0  0  0  0  0
    9.8097   -2.4543    1.1393 C   0  0  0  0  0  0  0  0  0  0  0  0
    8.6678   -1.7107    0.8522 C   0  0  0  0  0  0  0  0  0  0  0  0
   -8.6677   -1.7107   -0.8522 C   0  0  0  0  0  0  0  0  0  0  0  0
   -9.8096   -2.4544   -1.1393 C   0  0  0  0  0  0  0  0  0  0  0  0
   -9.8804   -3.7992   -0.7776 C   0  0  0  0  0  0  0  0  0  0  0  0
   -8.7997   -4.3940   -0.1273 C   0  0  0  0  0  0  0  0  0  0  0  0
   -7.6578   -3.6499    0.1593 C   0  0  0  0  0  0  0  0  0  0  0  0
    3.6311    1.5096   -2.9045 H   0  0  0  0  0  0  0  0  0  0  0  0
    2.4476    3.0000   -4.4612 H   0  0  0  0  0  0  0  0  0  0  0  0
    0.4322    4.3131   -5.0653 H   0  0  0  0  0  0  0  0  0  0  0  0
   -1.5302    4.3593   -3.5195 H   0  0  0  0  0  0  0  0  0  0  0  0
   -1.4849    3.0989   -1.4010 H   0  0  0  0  0  0  0  0  0  0  0  0
   -3.6311    1.5099    2.9044 H   0  0  0  0  0  0  0  0  0  0  0  0
    1.4849    3.0990    1.4009 H   0  0  0  0  0  0  0  0  0  0  0  0
    1.5301    4.3596    3.5192 H   0  0  0  0  0  0  0  0  0  0  0  0
   -0.4322    4.3135    5.0650 H   0  0  0  0  0  0  0  0  0  0  0  0
   -2.4476    3.0004    4.4610 H   0  0  0  0  0  0  0  0  0  0  0  0
    2.6361   -0.1066    1.2069 H   0  0  0  0  0  0  0  0  0  0  0  0
   -2.6361   -0.1067   -1.2068 H   0  0  0  0  0  0  0  0  0  0  0  0
    2.9592   -1.7898   -0.2591 H   0  0  0  0  0  0  0  0  0  0  0  0
    4.9748   -3.1083    0.2850 H   0  0  0  0  0  0  0  0  0  0  0  0
    5.4221    1.6412   -1.0770 H   0  0  0  0  0  0  0  0  0  0  0  0
   -5.4221    1.6413    1.0768 H   0  0  0  0  0  0  0  0  0  0  0  0
   -7.4449    0.3037    0.5933 H   0  0  0  0  0  0  0  0  0  0  0  0
   -4.9747   -3.1083   -0.2847 H   0  0  0  0  0  0  0  0  0  0  0  0
   -2.9591   -1.7898    0.2593 H   0  0  0  0  0  0  0  0  0  0  0  0
    7.4449    0.3036   -0.5934 H   0  0  0  0  0  0  0  0  0  0  0  0
    6.8265   -4.1176   -0.6902 H   0  0  0  0  0  0  0  0  0  0  0  0
    8.8486   -5.4437   -0.1663 H   0  0  0  0  0  0  0  0  0  0  0  0
   10.7748   -4.3817    1.0033 H   0  0  0  0  0  0  0  0  0  0  0  0
   10.6463   -1.9816    1.6561 H   0  0  0  0  0  0  0  0  0  0  0  0
    8.6113   -0.6650    1.1609 H   0  0  0  0  0  0  0  0  0  0  0  0
   -8.6112   -0.6651   -1.1609 H   0  0  0  0  0  0  0  0  0  0  0  0
  -10.6462   -1.9817   -1.6561 H   0  0  0  0  0  0  0  0  0  0  0  0
  -10.7746   -4.3818   -1.0032 H   0  0  0  0  0  0  0  0  0  0  0  0
   -8.8486   -5.4437    0.1665 H   0  0  0  0  0  0  0  0  0  0  0  0
   -6.8265   -4.1176    0.6905 H   0  0  0  0  0  0  0  0  0  0  0  0
  1  2  1  0  0  0  0
  1  6  2  0  0  0  0
  1  7  1  0  0  0  0
  2  3  2  0  0  0  0
  2 10  1  0  0  0  0
  3  4  1  0  0  0  0
  3 11  1  0  0  0  0
  4  5  2  0  0  0  0
  4 21  1  0  0  0  0
  5  6  1  0  0  0  0
  5 23  1  0  0  0  0
  6 47  1  0  0  0  0
  7  8  2  0  0  0  0
  7 48  1  0  0  0  0
  8  9  1  0  0  0  0
  8 49  1  0  0  0  0
  9 10  2  0  0  0  0
  9 50  1  0  0  0  0
 10 51  1  0  0  0  0
 11 12  2  0  0  0  0
 11 16  1  0  0  0  0
 12 13  1  0  0  0  0
 12 17  1  0  0  0  0
 13 14  2  0  0  0  0
 13 20  1  0  0  0  0
 14 15  1  0  0  0  0
 14 52  1  0  0  0  0
 15 16  2  0  0  0  0
 15 24  1  0  0  0  0
 16 22  1  0  0  0  0
 17 18  2  0  0  0  0
 17 53  1  0  0  0  0
 18 19  1  0  0  0  0
 18 54  1  0  0  0  0
 19 20  2  0  0  0  0
 19 55  1  0  0  0  0
 20 56  1  0  0  0  0
 21 57  1  0  0  0  0
 22 58  1  0  0  0  0
 23 25  2  0  0  0  0
 23 28  1  0  0  0  0
 24 29  2  0  0  0  0
 24 33  1  0  0  0  0
 25 26  1  0  0  0  0
 25 59  1  0  0  0  0
 26 27  2  0  0  0  0
 26 60  1  0  0  0  0
 27 34  1  0  0  0  0
 27 35  1  0  0  0  0
 28 34  2  0  0  0  0
 28 61  1  0  0  0  0
 29 30  1  0  0  0  0
 29 62  1  0  0  0  0
 30 31  2  0  0  0  0
 30 63  1  0  0  0  0
 31 32  1  0  0  0  0
 31 36  1  0  0  0  0
 32 33  2  0  0  0  0
 32 64  1  0  0  0  0
 33 65  1  0  0  0  0
 34 66  1  0  0  0  0
 35 37  2  0  0  0  0
 35 41  1  0  0  0  0
 36 42  2  0  0  0  0
 36 46  1  0  0  0  0
 37 38  1  0  0  0  0
 37 67  1  0  0  0  0
 38 39  2  0  0  0  0
 38 68  1  0  0  0  0
 39 40  1  0  0  0  0
 39 69  1  0  0  0  0
 40 41  2  0  0  0  0
 40 70  1  0  0  0  0
 41 71  1  0  0  0  0
 42 43  1  0  0  0  0
 42 72  1  0  0  0  0
 43 44  2  0  0  0  0
 43 73  1  0  0  0  0
 44 45  1  0  0  0  0
 44 74  1  0  0  0  0
 45 46  2  0  0  0  0
 45 75  1  0  0  0  0
 46 76  1  0  0  0  0
M  END
$$$$
