Title Card Required
 OpenBabel03192317433D

 60 63  0  0  1  0  0  0  0  0999 V2000
    2.7283   -0.9453    1.7165 C   0  0  1  0  0  0  0  0  0  0  0  0
    3.1308   -1.8189    0.6519 O   0  0  0  0  0  0  0  0  0  0  0  0
    2.3144   -1.7329   -0.4183 C   0  0  0  0  0  0  0  0  0  0  0  0
    1.4077   -0.6650   -0.4464 C   0  0  0  0  0  0  0  0  0  0  0  0
    1.6917    0.4524    0.9857 P   0  0  2  0  0  0  0  0  0  0  0  0
    3.0284    1.6029    0.2802 C   0  0  0  0  0  0  0  0  0  0  0  0
    0.5164   -0.5369   -1.5207 C   0  0  0  0  0  0  0  0  0  0  0  0
   -0.5164    0.5369   -1.5207 C   0  0  0  0  0  0  0  0  0  0  0  0
   -1.4077    0.6649   -0.4464 C   0  0  0  0  0  0  0  0  0  0  0  0
   -2.3143    1.7329   -0.4183 C   0  0  0  0  0  0  0  0  0  0  0  0
   -2.3933    2.6509   -1.4659 C   0  0  0  0  0  0  0  0  0  0  0  0
   -1.5399    2.4813   -2.5540 C   0  0  0  0  0  0  0  0  0  0  0  0
   -0.6080    1.4423   -2.5861 C   0  0  0  0  0  0  0  0  0  0  0  0
    0.6080   -1.4424   -2.5860 C   0  0  0  0  0  0  0  0  0  0  0  0
    1.5400   -2.4813   -2.5540 C   0  0  0  0  0  0  0  0  0  0  0  0
    2.3934   -2.6509   -1.4660 C   0  0  0  0  0  0  0  0  0  0  0  0
    4.2055    0.8891   -0.3836 C   0  0  0  0  0  0  0  0  0  0  0  0
    2.3312    2.5057   -0.7420 C   0  0  0  0  0  0  0  0  0  0  0  0
    3.5204    2.4451    1.4626 C   0  0  0  0  0  0  0  0  0  0  0  0
   -1.6917   -0.4524    0.9856 P   0  0  1  0  0  0  0  0  0  0  0  0
   -2.7281    0.9453    1.7165 C   0  0  2  0  0  0  0  0  0  0  0  0
   -3.1306    1.8189    0.6520 O   0  0  0  0  0  0  0  0  0  0  0  0
   -3.0286   -1.6028    0.2802 C   0  0  0  0  0  0  0  0  0  0  0  0
   -2.3316   -2.5055   -0.7423 C   0  0  0  0  0  0  0  0  0  0  0  0
   -3.5203   -2.4452    1.4626 C   0  0  0  0  0  0  0  0  0  0  0  0
   -4.2058   -0.8889   -0.3833 C   0  0  0  0  0  0  0  0  0  0  0  0
   -1.9341    1.7401    2.7412 C   0  0  0  0  0  0  0  0  0  0  0  0
    1.9344   -1.7402    2.7412 C   0  0  0  0  0  0  0  0  0  0  0  0
    3.6512   -0.5452    2.1624 H   0  0  0  0  0  0  0  0  0  0  0  0
   -3.1141    3.4666   -1.4153 H   0  0  0  0  0  0  0  0  0  0  0  0
   -1.5885    3.1853   -3.3863 H   0  0  0  0  0  0  0  0  0  0  0  0
    0.0809    1.3460   -3.4271 H   0  0  0  0  0  0  0  0  0  0  0  0
   -0.0809   -1.3461   -3.4270 H   0  0  0  0  0  0  0  0  0  0  0  0
    1.5885   -3.1854   -3.3863 H   0  0  0  0  0  0  0  0  0  0  0  0
    3.1143   -3.4665   -1.4153 H   0  0  0  0  0  0  0  0  0  0  0  0
    3.8754    0.2705   -1.2315 H   0  0  0  0  0  0  0  0  0  0  0  0
    4.9167    1.6379   -0.7707 H   0  0  0  0  0  0  0  0  0  0  0  0
    4.7483    0.2404    0.3191 H   0  0  0  0  0  0  0  0  0  0  0  0
    1.4264    2.9778   -0.3263 H   0  0  0  0  0  0  0  0  0  0  0  0
    3.0187    3.3053   -1.0638 H   0  0  0  0  0  0  0  0  0  0  0  0
    2.0348    1.9357   -1.6350 H   0  0  0  0  0  0  0  0  0  0  0  0
    2.6928    2.9952    1.9354 H   0  0  0  0  0  0  0  0  0  0  0  0
    4.0031    1.8247    2.2342 H   0  0  0  0  0  0  0  0  0  0  0  0
    4.2655    3.1787    1.1143 H   0  0  0  0  0  0  0  0  0  0  0  0
   -3.6510    0.5452    2.1625 H   0  0  0  0  0  0  0  0  0  0  0  0
   -1.4266   -2.9775   -0.3269 H   0  0  0  0  0  0  0  0  0  0  0  0
   -3.0191   -3.3052   -1.0638 H   0  0  0  0  0  0  0  0  0  0  0  0
   -2.0356   -1.9355   -1.6353 H   0  0  0  0  0  0  0  0  0  0  0  0
   -4.0029   -1.8249    2.2344 H   0  0  0  0  0  0  0  0  0  0  0  0
   -4.2655   -3.1787    1.1144 H   0  0  0  0  0  0  0  0  0  0  0  0
   -2.6927   -2.9954    1.9352 H   0  0  0  0  0  0  0  0  0  0  0  0
   -4.7483   -0.2401    0.3196 H   0  0  0  0  0  0  0  0  0  0  0  0
   -3.8759   -0.2704   -1.2313 H   0  0  0  0  0  0  0  0  0  0  0  0
   -4.9172   -1.6377   -0.7701 H   0  0  0  0  0  0  0  0  0  0  0  0
   -2.5139    2.6138    3.0712 H   0  0  0  0  0  0  0  0  0  0  0  0
   -1.6987    1.1121    3.6116 H   0  0  0  0  0  0  0  0  0  0  0  0
   -0.9836    2.0848    2.3058 H   0  0  0  0  0  0  0  0  0  0  0  0
    2.5143   -2.6138    3.0713 H   0  0  0  0  0  0  0  0  0  0  0  0
    1.6988   -1.1122    3.6116 H   0  0  0  0  0  0  0  0  0  0  0  0
    0.9839   -2.0850    2.3058 H   0  0  0  0  0  0  0  0  0  0  0  0
  1  2  1  0  0  0  0
  1  5  1  0  0  0  0
  1 28  1  0  0  0  0
  1 29  1  1  0  0  0
  2  3  1  0  0  0  0
  3  4  2  0  0  0  0
  3 16  1  0  0  0  0
  4  5  1  0  0  0  0
  4  7  1  0  0  0  0
  5  6  1  6  0  0  0
  6 17  1  0  0  0  0
  6 18  1  0  0  0  0
  6 19  1  0  0  0  0
  7  8  1  0  0  0  0
  7 14  2  0  0  0  0
  8  9  2  0  0  0  0
  8 13  1  0  0  0  0
  9 10  1  0  0  0  0
  9 20  1  0  0  0  0
 10 11  2  0  0  0  0
 10 22  1  0  0  0  0
 11 12  1  0  0  0  0
 11 30  1  0  0  0  0
 12 13  2  0  0  0  0
 12 31  1  0  0  0  0
 13 32  1  0  0  0  0
 14 15  1  0  0  0  0
 14 33  1  0  0  0  0
 15 16  2  0  0  0  0
 15 34  1  0  0  0  0
 16 35  1  0  0  0  0
 17 36  1  0  0  0  0
 17 37  1  0  0  0  0
 17 38  1  0  0  0  0
 18 39  1  0  0  0  0
 18 40  1  0  0  0  0
 18 41  1  0  0  0  0
 19 42  1  0  0  0  0
 19 43  1  0  0  0  0
 19 44  1  0  0  0  0
 20 21  1  0  0  0  0
 20 23  1  6  0  0  0
 21 22  1  0  0  0  0
 21 27  1  0  0  0  0
 21 45  1  1  0  0  0
 23 24  1  0  0  0  0
 23 25  1  0  0  0  0
 23 26  1  0  0  0  0
 24 46  1  0  0  0  0
 24 47  1  0  0  0  0
 24 48  1  0  0  0  0
 25 49  1  0  0  0  0
 25 50  1  0  0  0  0
 25 51  1  0  0  0  0
 26 52  1  0  0  0  0
 26 53  1  0  0  0  0
 26 54  1  0  0  0  0
 27 55  1  0  0  0  0
 27 56  1  0  0  0  0
 27 57  1  0  0  0  0
 28 58  1  0  0  0  0
 28 59  1  0  0  0  0
 28 60  1  0  0  0  0
M  END
$$$$
