Title Card Required
 OpenBabel03192317533D

 54 57  0  0  0  0  0  0  0  0999 V2000
   -2.6661    1.1484    1.9070 C   0  0  0  0  0  0  0  0  0  0  0  0
   -3.0109    2.0403    0.8500 O   0  0  0  0  0  0  0  0  0  0  0  0
   -2.1995    1.8902   -0.2182 C   0  0  0  0  0  0  0  0  0  0  0  0
   -1.3578    0.7691   -0.2284 C   0  0  0  0  0  0  0  0  0  0  0  0
   -1.7073   -0.3127    1.2195 P   0  0  2  0  0  0  0  0  0  0  0  0
   -3.1094   -1.3947    0.5284 C   0  0  0  0  0  0  0  0  0  0  0  0
   -0.4794    0.5699   -1.3020 C   0  0  0  0  0  0  0  0  0  0  0  0
    0.4794   -0.5700   -1.3020 C   0  0  0  0  0  0  0  0  0  0  0  0
    1.3578   -0.7692   -0.2283 C   0  0  0  0  0  0  0  0  0  0  0  0
    2.1996   -1.8902   -0.2181 C   0  0  0  0  0  0  0  0  0  0  0  0
    2.2214   -2.7977   -1.2768 C   0  0  0  0  0  0  0  0  0  0  0  0
    1.3752   -2.5646   -2.3591 C   0  0  0  0  0  0  0  0  0  0  0  0
    0.5108   -1.4691   -2.3765 C   0  0  0  0  0  0  0  0  0  0  0  0
   -0.5107    1.4689   -2.3766 C   0  0  0  0  0  0  0  0  0  0  0  0
   -1.3750    2.5646   -2.3591 C   0  0  0  0  0  0  0  0  0  0  0  0
   -2.2212    2.7977   -1.2769 C   0  0  0  0  0  0  0  0  0  0  0  0
   -4.2451   -0.6248   -0.1445 C   0  0  0  0  0  0  0  0  0  0  0  0
   -2.4672   -2.3517   -0.4807 C   0  0  0  0  0  0  0  0  0  0  0  0
   -3.6469   -2.1889    1.7238 C   0  0  0  0  0  0  0  0  0  0  0  0
    1.7073    0.3127    1.2195 P   0  0  1  0  0  0  0  0  0  0  0  0
    2.6659   -1.1483    1.9071 C   0  0  0  0  0  0  0  0  0  0  0  0
    3.0110   -2.0402    0.8501 O   0  0  0  0  0  0  0  0  0  0  0  0
    3.1093    1.3947    0.5284 C   0  0  0  0  0  0  0  0  0  0  0  0
    2.4672    2.3516   -0.4808 C   0  0  0  0  0  0  0  0  0  0  0  0
    3.6467    2.1891    1.7238 C   0  0  0  0  0  0  0  0  0  0  0  0
    4.2451    0.6248   -0.1443 C   0  0  0  0  0  0  0  0  0  0  0  0
   -2.0203    1.6815    2.6244 H   0  0  0  0  0  0  0  0  0  0  0  0
   -3.5872    0.8432    2.4225 H   0  0  0  0  0  0  0  0  0  0  0  0
    2.8919   -3.6558   -1.2399 H   0  0  0  0  0  0  0  0  0  0  0  0
    1.3764   -3.2614   -3.1988 H   0  0  0  0  0  0  0  0  0  0  0  0
   -0.1728   -1.3204   -3.2141 H   0  0  0  0  0  0  0  0  0  0  0  0
    0.1730    1.3202   -3.2141 H   0  0  0  0  0  0  0  0  0  0  0  0
   -1.3761    3.2613   -3.1989 H   0  0  0  0  0  0  0  0  0  0  0  0
   -2.8917    3.6559   -1.2400 H   0  0  0  0  0  0  0  0  0  0  0  0
   -3.8822   -0.0390   -1.0022 H   0  0  0  0  0  0  0  0  0  0  0  0
   -4.9985   -1.3372   -0.5207 H   0  0  0  0  0  0  0  0  0  0  0  0
   -4.7497    0.0628    0.5497 H   0  0  0  0  0  0  0  0  0  0  0  0
   -1.5915   -2.8700   -0.0582 H   0  0  0  0  0  0  0  0  0  0  0  0
   -3.2008   -3.1141   -0.7903 H   0  0  0  0  0  0  0  0  0  0  0  0
   -2.1400   -1.8134   -1.3825 H   0  0  0  0  0  0  0  0  0  0  0  0
   -2.8505   -2.7752    2.2064 H   0  0  0  0  0  0  0  0  0  0  0  0
   -4.0948   -1.5297    2.4844 H   0  0  0  0  0  0  0  0  0  0  0  0
   -4.4311   -2.8863    1.3874 H   0  0  0  0  0  0  0  0  0  0  0  0
    3.5869   -0.8434    2.4229 H   0  0  0  0  0  0  0  0  0  0  0  0
    2.0198   -1.6815    2.6242 H   0  0  0  0  0  0  0  0  0  0  0  0
    1.5914    2.8699   -0.0584 H   0  0  0  0  0  0  0  0  0  0  0  0
    3.2008    3.1140   -0.7904 H   0  0  0  0  0  0  0  0  0  0  0  0
    2.1400    1.8133   -1.3826 H   0  0  0  0  0  0  0  0  0  0  0  0
    4.0946    1.5299    2.4845 H   0  0  0  0  0  0  0  0  0  0  0  0
    4.4309    2.8864    1.3874 H   0  0  0  0  0  0  0  0  0  0  0  0
    2.8503    2.7754    2.2063 H   0  0  0  0  0  0  0  0  0  0  0  0
    4.7496   -0.0627    0.5501 H   0  0  0  0  0  0  0  0  0  0  0  0
    3.8822    0.0388   -1.0019 H   0  0  0  0  0  0  0  0  0  0  0  0
    4.9985    1.3371   -0.5206 H   0  0  0  0  0  0  0  0  0  0  0  0
  1  2  1  0  0  0  0
  1  5  1  0  0  0  0
  1 27  1  0  0  0  0
  1 28  1  0  0  0  0
  2  3  1  0  0  0  0
  3  4  2  0  0  0  0
  3 16  1  0  0  0  0
  4  5  1  0  0  0  0
  4  7  1  0  0  0  0
  5  6  1  6  0  0  0
  6 17  1  0  0  0  0
  6 18  1  0  0  0  0
  6 19  1  0  0  0  0
  7  8  1  0  0  0  0
  7 14  2  0  0  0  0
  8  9  2  0  0  0  0
  8 13  1  0  0  0  0
  9 10  1  0  0  0  0
  9 20  1  0  0  0  0
 10 11  2  0  0  0  0
 10 22  1  0  0  0  0
 11 12  1  0  0  0  0
 11 29  1  0  0  0  0
 12 13  2  0  0  0  0
 12 30  1  0  0  0  0
 13 31  1  0  0  0  0
 14 15  1  0  0  0  0
 14 32  1  0  0  0  0
 15 16  2  0  0  0  0
 15 33  1  0  0  0  0
 16 34  1  0  0  0  0
 17 35  1  0  0  0  0
 17 36  1  0  0  0  0
 17 37  1  0  0  0  0
 18 38  1  0  0  0  0
 18 39  1  0  0  0  0
 18 40  1  0  0  0  0
 19 41  1  0  0  0  0
 19 42  1  0  0  0  0
 19 43  1  0  0  0  0
 20 21  1  0  0  0  0
 20 23  1  6  0  0  0
 21 22  1  0  0  0  0
 21 44  1  0  0  0  0
 21 45  1  0  0  0  0
 23 24  1  0  0  0  0
 23 25  1  0  0  0  0
 23 26  1  0  0  0  0
 24 46  1  0  0  0  0
 24 47  1  0  0  0  0
 24 48  1  0  0  0  0
 25 49  1  0  0  0  0
 25 50  1  0  0  0  0
 25 51  1  0  0  0  0
 26 52  1  0  0  0  0
 26 53  1  0  0  0  0
 26 54  1  0  0  0  0
M  END
$$$$
