Title Card Required
 OpenBabel03192317523D

 72 75  0  0  1  0  0  0  0  0999 V2000
    3.8873   -1.1379   -0.3595 C   0  0  2  0  0  0  0  0  0  0  0  0
    3.5712   -1.6238    0.9466 O   0  0  0  0  0  0  0  0  0  0  0  0
    2.4376   -1.1042    1.4616 C   0  0  0  0  0  0  0  0  0  0  0  0
    1.8137   -0.0610    0.7551 C   0  0  0  0  0  0  0  0  0  0  0  0
    2.8999    0.4523   -0.6445 P   0  0  1  0  0  0  0  0  0  0  0  0
    4.1398    1.6513    0.2049 C   0  0  0  0  0  0  0  0  0  0  0  0
    0.5381    0.3771    1.1736 C   0  0  0  0  0  0  0  0  0  0  0  0
   -0.3425    1.2574    0.3438 C   0  0  0  0  0  0  0  0  0  0  0  0
   -1.7199    0.9826    0.2036 C   0  0  0  0  0  0  0  0  0  0  0  0
   -2.5147    1.8300   -0.5868 C   0  0  0  0  0  0  0  0  0  0  0  0
   -1.9909    2.9302   -1.2622 C   0  0  0  0  0  0  0  0  0  0  0  0
   -0.6306    3.1820   -1.1312 C   0  0  0  0  0  0  0  0  0  0  0  0
    0.1759    2.3643   -0.3404 C   0  0  0  0  0  0  0  0  0  0  0  0
    0.0386   -0.1145    2.3912 C   0  0  0  0  0  0  0  0  0  0  0  0
    0.7279   -1.0779    3.1242 C   0  0  0  0  0  0  0  0  0  0  0  0
    1.9199   -1.6160    2.6493 C   0  0  0  0  0  0  0  0  0  0  0  0
    5.2740    1.8357   -0.8125 C   0  0  0  0  0  0  0  0  0  0  0  0
    3.4835    3.0130    0.4441 C   0  0  0  0  0  0  0  0  0  0  0  0
    4.6941    1.1482    1.5396 C   0  0  0  0  0  0  0  0  0  0  0  0
   -2.7431   -0.4491    0.7845 P   0  0  1  0  0  0  0  0  0  0  0  0
   -4.2313    0.6147    0.3212 C   0  0  1  0  0  0  0  0  0  0  0  0
   -3.8261    1.5227   -0.7010 O   0  0  0  0  0  0  0  0  0  0  0  0
   -2.4837   -1.6500   -0.6679 C   0  0  0  0  0  0  0  0  0  0  0  0
   -1.0312   -2.1262   -0.5428 C   0  0  0  0  0  0  0  0  0  0  0  0
   -3.4177   -2.8471   -0.4531 C   0  0  0  0  0  0  0  0  0  0  0  0
   -2.6866   -1.0478   -2.0591 C   0  0  0  0  0  0  0  0  0  0  0  0
   -5.5535   -0.0453   -0.0472 C   0  0  0  0  0  0  0  0  0  0  0  0
    3.6727   -2.2420   -1.3973 C   0  0  0  0  0  0  0  0  0  0  0  0
   -6.0585   -0.8995    1.1141 C   0  0  0  0  0  0  0  0  0  0  0  0
   -6.5838    1.0152   -0.4353 C   0  0  0  0  0  0  0  0  0  0  0  0
    2.2072   -2.6371   -1.5409 C   0  0  0  0  0  0  0  0  0  0  0  0
    4.2785   -1.8324   -2.7369 C   0  0  0  0  0  0  0  0  0  0  0  0
    4.9581   -0.8859   -0.3511 H   0  0  0  0  0  0  0  0  0  0  0  0
   -2.6470    3.5555   -1.8672 H   0  0  0  0  0  0  0  0  0  0  0  0
   -0.1862    4.0383   -1.6409 H   0  0  0  0  0  0  0  0  0  0  0  0
    1.2263    2.6067   -0.2340 H   0  0  0  0  0  0  0  0  0  0  0  0
   -0.9160    0.2567    2.7597 H   0  0  0  0  0  0  0  0  0  0  0  0
    0.3108   -1.4369    4.0665 H   0  0  0  0  0  0  0  0  0  0  0  0
    2.4524   -2.4116    3.1697 H   0  0  0  0  0  0  0  0  0  0  0  0
    4.8933    2.2338   -1.7655 H   0  0  0  0  0  0  0  0  0  0  0  0
    6.0127    2.5499   -0.4145 H   0  0  0  0  0  0  0  0  0  0  0  0
    5.8081    0.8976   -1.0257 H   0  0  0  0  0  0  0  0  0  0  0  0
    2.6746    2.9468    1.1870 H   0  0  0  0  0  0  0  0  0  0  0  0
    4.2385    3.7114    0.8393 H   0  0  0  0  0  0  0  0  0  0  0  0
    3.0852    3.4472   -0.4853 H   0  0  0  0  0  0  0  0  0  0  0  0
    3.8909    1.0104    2.2788 H   0  0  0  0  0  0  0  0  0  0  0  0
    5.2357    0.1975    1.4474 H   0  0  0  0  0  0  0  0  0  0  0  0
    5.3963    1.8963    1.9434 H   0  0  0  0  0  0  0  0  0  0  0  0
   -4.3992    1.2162    1.2397 H   0  0  0  0  0  0  0  0  0  0  0  0
   -0.8118   -2.5344    0.4576 H   0  0  0  0  0  0  0  0  0  0  0  0
   -0.8382   -2.9167   -1.2872 H   0  0  0  0  0  0  0  0  0  0  0  0
   -0.3263   -1.3044   -0.7353 H   0  0  0  0  0  0  0  0  0  0  0  0
   -4.4766   -2.5802   -0.5788 H   0  0  0  0  0  0  0  0  0  0  0  0
   -3.1842   -3.6315   -1.1916 H   0  0  0  0  0  0  0  0  0  0  0  0
   -3.2886   -3.2799    0.5512 H   0  0  0  0  0  0  0  0  0  0  0  0
   -3.7073   -0.6734   -2.2139 H   0  0  0  0  0  0  0  0  0  0  0  0
   -1.9901   -0.2149   -2.2355 H   0  0  0  0  0  0  0  0  0  0  0  0
   -2.4855   -1.8191   -2.8216 H   0  0  0  0  0  0  0  0  0  0  0  0
   -5.3854   -0.6927   -0.9227 H   0  0  0  0  0  0  0  0  0  0  0  0
    4.2297   -3.1124   -1.0092 H   0  0  0  0  0  0  0  0  0  0  0  0
   -6.2352   -0.2727    2.0025 H   0  0  0  0  0  0  0  0  0  0  0  0
   -7.0101   -1.3830    0.8510 H   0  0  0  0  0  0  0  0  0  0  0  0
   -5.3417   -1.6845    1.3955 H   0  0  0  0  0  0  0  0  0  0  0  0
   -6.2315    1.6175   -1.2820 H   0  0  0  0  0  0  0  0  0  0  0  0
   -7.5374    0.5422   -0.7111 H   0  0  0  0  0  0  0  0  0  0  0  0
   -6.7736    1.6942    0.4114 H   0  0  0  0  0  0  0  0  0  0  0  0
    1.6232   -1.8125   -1.9810 H   0  0  0  0  0  0  0  0  0  0  0  0
    2.1050   -3.5091   -2.2037 H   0  0  0  0  0  0  0  0  0  0  0  0
    1.7615   -2.8943   -0.5688 H   0  0  0  0  0  0  0  0  0  0  0  0
    5.3469   -1.5851   -2.6402 H   0  0  0  0  0  0  0  0  0  0  0  0
    4.1862   -2.6476   -3.4685 H   0  0  0  0  0  0  0  0  0  0  0  0
    3.7595   -0.9514   -3.1463 H   0  0  0  0  0  0  0  0  0  0  0  0
  1  2  1  0  0  0  0
  1  5  1  0  0  0  0
  1 28  1  0  0  0  0
  1 33  1  6  0  0  0
  2  3  1  0  0  0  0
  3  4  2  0  0  0  0
  3 16  1  0  0  0  0
  4  5  1  0  0  0  0
  4  7  1  0  0  0  0
  5  6  1  1  0  0  0
  6 17  1  0  0  0  0
  6 18  1  0  0  0  0
  6 19  1  0  0  0  0
  7  8  1  0  0  0  0
  7 14  2  0  0  0  0
  8  9  2  0  0  0  0
  8 13  1  0  0  0  0
  9 10  1  0  0  0  0
  9 20  1  0  0  0  0
 10 11  2  0  0  0  0
 10 22  1  0  0  0  0
 11 12  1  0  0  0  0
 11 34  1  0  0  0  0
 12 13  2  0  0  0  0
 12 35  1  0  0  0  0
 13 36  1  0  0  0  0
 14 15  1  0  0  0  0
 14 37  1  0  0  0  0
 15 16  2  0  0  0  0
 15 38  1  0  0  0  0
 16 39  1  0  0  0  0
 17 40  1  0  0  0  0
 17 41  1  0  0  0  0
 17 42  1  0  0  0  0
 18 43  1  0  0  0  0
 18 44  1  0  0  0  0
 18 45  1  0  0  0  0
 19 46  1  0  0  0  0
 19 47  1  0  0  0  0
 19 48  1  0  0  0  0
 20 21  1  0  0  0  0
 20 23  1  6  0  0  0
 21 22  1  0  0  0  0
 21 27  1  0  0  0  0
 21 49  1  1  0  0  0
 23 24  1  0  0  0  0
 23 25  1  0  0  0  0
 23 26  1  0  0  0  0
 24 50  1  0  0  0  0
 24 51  1  0  0  0  0
 24 52  1  0  0  0  0
 25 53  1  0  0  0  0
 25 54  1  0  0  0  0
 25 55  1  0  0  0  0
 26 56  1  0  0  0  0
 26 57  1  0  0  0  0
 26 58  1  0  0  0  0
 27 29  1  0  0  0  0
 27 30  1  0  0  0  0
 27 59  1  0  0  0  0
 28 31  1  0  0  0  0
 28 32  1  0  0  0  0
 28 60  1  0  0  0  0
 29 61  1  0  0  0  0
 29 62  1  0  0  0  0
 29 63  1  0  0  0  0
 30 64  1  0  0  0  0
 30 65  1  0  0  0  0
 30 66  1  0  0  0  0
 31 67  1  0  0  0  0
 31 68  1  0  0  0  0
 31 69  1  0  0  0  0
 32 70  1  0  0  0  0
 32 71  1  0  0  0  0
 32 72  1  0  0  0  0
M  END
$$$$
