Title Card Required
 OpenBabel03192317513D

 60 63  0  0  1  0  0  0  0  0999 V2000
   -2.3251   -1.7195    0.4334 C   0  0  0  0  0  0  0  0  0  0  0  0
   -2.4396   -2.6101    1.5001 C   0  0  0  0  0  0  0  0  0  0  0  0
   -1.6007   -2.4306    2.5980 C   0  0  0  0  0  0  0  0  0  0  0  0
   -0.6504   -1.4090    2.6193 C   0  0  0  0  0  0  0  0  0  0  0  0
   -0.5265   -0.5268    1.5368 C   0  0  0  0  0  0  0  0  0  0  0  0
   -1.4006   -0.6646    0.4497 C   0  0  0  0  0  0  0  0  0  0  0  0
   -2.6041   -1.0293   -1.7326 C   0  0  1  0  0  0  0  0  0  0  0  0
    0.5264    0.5267    1.5368 C   0  0  0  0  0  0  0  0  0  0  0  0
    0.6504    1.4087    2.6194 C   0  0  0  0  0  0  0  0  0  0  0  0
    2.3249    1.7195    0.4335 C   0  0  0  0  0  0  0  0  0  0  0  0
    2.4395    2.6099    1.5003 C   0  0  0  0  0  0  0  0  0  0  0  0
    1.6007    2.4303    2.5983 C   0  0  0  0  0  0  0  0  0  0  0  0
    1.4005    0.6646    0.4497 C   0  0  0  0  0  0  0  0  0  0  0  0
   -1.6604    0.4361   -1.0082 P   0  0  1  0  0  0  0  0  0  0  0  0
   -3.1194   -1.8179   -0.6537 O   0  0  0  0  0  0  0  0  0  0  0  0
   -2.9798    1.6105   -0.3040 C   0  0  0  0  0  0  0  0  0  0  0  0
   -2.2455    2.4947    0.7120 C   0  0  0  0  0  0  0  0  0  0  0  0
   -3.4568    2.4851   -1.4704 C   0  0  0  0  0  0  0  0  0  0  0  0
   -4.1650    0.9363    0.3881 C   0  0  0  0  0  0  0  0  0  0  0  0
    1.6604   -0.4361   -1.0082 P   0  0  1  0  0  0  0  0  0  0  0  0
    2.6040    1.0293   -1.7325 C   0  0  1  0  0  0  0  0  0  0  0  0
    3.1191    1.8181   -0.6536 O   0  0  0  0  0  0  0  0  0  0  0  0
    2.9799   -1.6104   -0.3041 C   0  0  0  0  0  0  0  0  0  0  0  0
    2.2457   -2.4951    0.7115 C   0  0  0  0  0  0  0  0  0  0  0  0
    3.4572   -2.4846   -1.4708 C   0  0  0  0  0  0  0  0  0  0  0  0
    4.1649   -0.9362    0.3883 C   0  0  0  0  0  0  0  0  0  0  0  0
    3.6965    0.7966   -2.7523 C   0  0  0  0  0  0  0  0  0  0  0  0
   -3.6964   -0.7963   -2.7525 C   0  0  0  0  0  0  0  0  0  0  0  0
   -3.1728   -3.4150    1.4548 H   0  0  0  0  0  0  0  0  0  0  0  0
   -1.6726   -3.1156    3.4445 H   0  0  0  0  0  0  0  0  0  0  0  0
    0.0312   -1.3103    3.4660 H   0  0  0  0  0  0  0  0  0  0  0  0
   -1.7906   -1.6166   -2.2008 H   0  0  0  0  0  0  0  0  0  0  0  0
   -0.0312    1.3099    3.4662 H   0  0  0  0  0  0  0  0  0  0  0  0
    3.1727    3.4149    1.4550 H   0  0  0  0  0  0  0  0  0  0  0  0
    1.6726    3.1152    3.4448 H   0  0  0  0  0  0  0  0  0  0  0  0
   -1.3290    2.9377    0.2899 H   0  0  0  0  0  0  0  0  0  0  0  0
   -2.9080    3.3163    1.0313 H   0  0  0  0  0  0  0  0  0  0  0  0
   -1.9633    1.9220    1.6076 H   0  0  0  0  0  0  0  0  0  0  0  0
   -3.9791    1.9019   -2.2421 H   0  0  0  0  0  0  0  0  0  0  0  0
   -4.1584    3.2491   -1.0976 H   0  0  0  0  0  0  0  0  0  0  0  0
   -2.6124    3.0037   -1.9493 H   0  0  0  0  0  0  0  0  0  0  0  0
   -4.7389    0.2899   -0.2889 H   0  0  0  0  0  0  0  0  0  0  0  0
   -3.8337    0.3210    1.2379 H   0  0  0  0  0  0  0  0  0  0  0  0
   -4.8467    1.7097    0.7802 H   0  0  0  0  0  0  0  0  0  0  0  0
    1.7904    1.6166   -2.2008 H   0  0  0  0  0  0  0  0  0  0  0  0
    1.3294   -2.9384    0.2890 H   0  0  0  0  0  0  0  0  0  0  0  0
    2.9084   -3.3165    1.0308 H   0  0  0  0  0  0  0  0  0  0  0  0
    1.9631   -1.9227    1.6072 H   0  0  0  0  0  0  0  0  0  0  0  0
    3.9797   -1.9010   -2.2422 H   0  0  0  0  0  0  0  0  0  0  0  0
    4.1588   -3.2488   -1.0981 H   0  0  0  0  0  0  0  0  0  0  0  0
    2.6129   -3.0031   -1.9500 H   0  0  0  0  0  0  0  0  0  0  0  0
    4.7386   -0.2893   -0.2883 H   0  0  0  0  0  0  0  0  0  0  0  0
    3.8333   -0.3214    1.2383 H   0  0  0  0  0  0  0  0  0  0  0  0
    4.8468   -1.7095    0.7802 H   0  0  0  0  0  0  0  0  0  0  0  0
    3.3006    0.2369   -3.6107 H   0  0  0  0  0  0  0  0  0  0  0  0
    4.0745    1.7641   -3.1117 H   0  0  0  0  0  0  0  0  0  0  0  0
    4.5402    0.2402   -2.3255 H   0  0  0  0  0  0  0  0  0  0  0  0
   -3.3000   -0.2367   -3.6108 H   0  0  0  0  0  0  0  0  0  0  0  0
   -4.0747   -1.7637   -3.1120 H   0  0  0  0  0  0  0  0  0  0  0  0
   -4.5401   -0.2395   -2.3260 H   0  0  0  0  0  0  0  0  0  0  0  0
  1  2  2  0  0  0  0
  1  6  1  0  0  0  0
  1 15  1  0  0  0  0
  2  3  1  0  0  0  0
  2 29  1  0  0  0  0
  3  4  2  0  0  0  0
  3 30  1  0  0  0  0
  4  5  1  0  0  0  0
  4 31  1  0  0  0  0
  5  6  2  0  0  0  0
  5  8  1  0  0  0  0
  6 14  1  0  0  0  0
  7 14  1  0  0  0  0
  7 15  1  0  0  0  0
  7 28  1  0  0  0  0
  7 32  1  6  0  0  0
  8  9  2  0  0  0  0
  8 13  1  0  0  0  0
  9 12  1  0  0  0  0
  9 33  1  0  0  0  0
 10 11  1  0  0  0  0
 10 13  2  0  0  0  0
 10 22  1  0  0  0  0
 11 12  2  0  0  0  0
 11 34  1  0  0  0  0
 12 35  1  0  0  0  0
 13 20  1  0  0  0  0
 14 16  1  1  0  0  0
 16 17  1  0  0  0  0
 16 18  1  0  0  0  0
 16 19  1  0  0  0  0
 17 36  1  0  0  0  0
 17 37  1  0  0  0  0
 17 38  1  0  0  0  0
 18 39  1  0  0  0  0
 18 40  1  0  0  0  0
 18 41  1  0  0  0  0
 19 42  1  0  0  0  0
 19 43  1  0  0  0  0
 19 44  1  0  0  0  0
 20 21  1  0  0  0  0
 20 23  1  1  0  0  0
 21 22  1  0  0  0  0
 21 27  1  0  0  0  0
 21 45  1  6  0  0  0
 23 24  1  0  0  0  0
 23 25  1  0  0  0  0
 23 26  1  0  0  0  0
 24 46  1  0  0  0  0
 24 47  1  0  0  0  0
 24 48  1  0  0  0  0
 25 49  1  0  0  0  0
 25 50  1  0  0  0  0
 25 51  1  0  0  0  0
 26 52  1  0  0  0  0
 26 53  1  0  0  0  0
 26 54  1  0  0  0  0
 27 55  1  0  0  0  0
 27 56  1  0  0  0  0
 27 57  1  0  0  0  0
 28 58  1  0  0  0  0
 28 59  1  0  0  0  0
 28 60  1  0  0  0  0
M  END
$$$$
