Title Card Required
 OpenBabel03192317543D

 85 89  0  0  1  0  0  0  0  0999 V2000
    3.3728    1.7459   -1.1307 C   0  0  0  0  0  0  0  0  0  0  0  0
    3.7868    0.6959    0.4070 P   0  0  2  0  0  0  0  0  0  0  0  0
    5.1771   -0.5379   -0.0507 C   0  0  0  0  0  0  0  0  0  0  0  0
    0.2951   -1.6664   -0.4717 C   0  0  2  0  0  0  0  0  0  0  0  0
   -0.2187   -0.4274   -1.1946 C   0  0  0  0  0  0  0  0  0  0  0  0
   -0.9804   -2.5020    0.6643 P   0  0  0  0  0  0  0  0  0  0  0  0
   -2.2016   -3.0043   -0.6291 C   0  0  0  0  0  0  0  0  0  0  0  0
   -1.8650   -1.1457    1.5399 C   0  0  0  0  0  0  0  0  0  0  0  0
   -1.1753   -0.0295    2.0293 C   0  0  0  0  0  0  0  0  0  0  0  0
   -1.8150    0.9251    2.8213 C   0  0  0  0  0  0  0  0  0  0  0  0
   -3.1645    0.7833    3.1352 C   0  0  0  0  0  0  0  0  0  0  0  0
   -3.8592   -0.3370    2.6748 C   0  0  0  0  0  0  0  0  0  0  0  0
   -3.2157   -1.2951    1.8962 C   0  0  0  0  0  0  0  0  0  0  0  0
   -3.1946   -2.1720   -1.1625 C   0  0  0  0  0  0  0  0  0  0  0  0
   -4.0502   -2.6336   -2.1606 C   0  0  0  0  0  0  0  0  0  0  0  0
   -3.9249   -3.9357   -2.6453 C   0  0  0  0  0  0  0  0  0  0  0  0
   -2.9427   -4.7752   -2.1227 C   0  0  0  0  0  0  0  0  0  0  0  0
   -2.0943   -4.3143   -1.1159 C   0  0  0  0  0  0  0  0  0  0  0  0
    3.2957    1.0244   -2.4768 C   0  0  0  0  0  0  0  0  0  0  0  0
    4.4130    2.8770   -1.2151 C   0  0  0  0  0  0  0  0  0  0  0  0
    2.0286    2.4343   -0.8449 C   0  0  0  0  0  0  0  0  0  0  0  0
    6.3761    0.2961   -0.5291 C   0  0  0  0  0  0  0  0  0  0  0  0
    5.5956   -1.2090    1.2691 C   0  0  0  0  0  0  0  0  0  0  0  0
    4.9257   -1.6343   -1.0953 C   0  0  0  0  0  0  0  0  0  0  0  0
    1.8680   -2.1810    2.3650 C   0  0  0  0  0  0  0  0  0  0  0  0
    2.1512   -2.7209    0.9607 C   0  0  0  0  0  0  0  0  0  0  0  0
    2.2994   -0.7106    2.3078 C   0  0  0  0  0  0  0  0  0  0  0  0
    2.2114   -0.2857    0.8069 C   0  0  2  0  0  0  0  0  0  0  0  0
    1.7780   -1.5630    0.0192 C   0  0  2  0  0  0  0  0  0  0  0  0
    0.3427   -2.4757   -1.2218 H   0  0  0  0  0  0  0  0  0  0  0  0
    0.5198   -0.0718   -1.9299 H   0  0  0  0  0  0  0  0  0  0  0  0
   -1.1484   -0.6470   -1.7378 H   0  0  0  0  0  0  0  0  0  0  0  0
   -0.4323    0.3994   -0.5015 H   0  0  0  0  0  0  0  0  0  0  0  0
   -0.1187    0.0972    1.7929 H   0  0  0  0  0  0  0  0  0  0  0  0
   -1.2524    1.7873    3.1858 H   0  0  0  0  0  0  0  0  0  0  0  0
   -3.6721    1.5347    3.7419 H   0  0  0  0  0  0  0  0  0  0  0  0
   -4.9148   -0.4641    2.9203 H   0  0  0  0  0  0  0  0  0  0  0  0
   -3.7756   -2.1671    1.5505 H   0  0  0  0  0  0  0  0  0  0  0  0
   -3.3096   -1.1487   -0.7952 H   0  0  0  0  0  0  0  0  0  0  0  0
   -4.8157   -1.9658   -2.5607 H   0  0  0  0  0  0  0  0  0  0  0  0
   -4.5961   -4.2973   -3.4260 H   0  0  0  0  0  0  0  0  0  0  0  0
   -2.8432   -5.7978   -2.4905 H   0  0  0  0  0  0  0  0  0  0  0  0
   -1.3399   -4.9836   -0.6935 H   0  0  0  0  0  0  0  0  0  0  0  0
    2.9008    1.7103   -3.2458 H   0  0  0  0  0  0  0  0  0  0  0  0
    4.2875    0.6930   -2.8154 H   0  0  0  0  0  0  0  0  0  0  0  0
    2.6347    0.1461   -2.4386 H   0  0  0  0  0  0  0  0  0  0  0  0
    4.1222    3.5726   -2.0195 H   0  0  0  0  0  0  0  0  0  0  0  0
    4.4550    3.4416   -0.2720 H   0  0  0  0  0  0  0  0  0  0  0  0
    5.4231    2.5175   -1.4407 H   0  0  0  0  0  0  0  0  0  0  0  0
    1.1758    1.7549   -0.9617 H   0  0  0  0  0  0  0  0  0  0  0  0
    2.0028    2.8624    0.1710 H   0  0  0  0  0  0  0  0  0  0  0  0
    1.8950    3.2611   -1.5613 H   0  0  0  0  0  0  0  0  0  0  0  0
    6.5620    1.1634    0.1225 H   0  0  0  0  0  0  0  0  0  0  0  0
    7.2778   -0.3377   -0.5173 H   0  0  0  0  0  0  0  0  0  0  0  0
    6.2420    0.6512   -1.5605 H   0  0  0  0  0  0  0  0  0  0  0  0
    4.8078   -1.8558    1.6789 H   0  0  0  0  0  0  0  0  0  0  0  0
    6.4814   -1.8406    1.0896 H   0  0  0  0  0  0  0  0  0  0  0  0
    5.8562   -0.4598    2.0314 H   0  0  0  0  0  0  0  0  0  0  0  0
    4.2453   -2.4124   -0.7321 H   0  0  0  0  0  0  0  0  0  0  0  0
    4.5284   -1.2416   -2.0390 H   0  0  0  0  0  0  0  0  0  0  0  0
    5.8852   -2.1298   -1.3215 H   0  0  0  0  0  0  0  0  0  0  0  0
    2.3936   -2.7446    3.1492 H   0  0  0  0  0  0  0  0  0  0  0  0
    1.5927   -3.6422    0.7372 H   0  0  0  0  0  0  0  0  0  0  0  0
    3.3248   -0.5902    2.6833 H   0  0  0  0  0  0  0  0  0  0  0  0
   -4.0076    1.7534   -0.5266 Fe  0  0  0  0  0  0  0  0  0  0  0  0
   -1.9847    5.2811    0.0066 C   0  0  0  0  0  0  0  0  0  0  0  0
   -1.6398    2.8753    0.0367 C   0  0  0  0  0  0  0  0  0  0  0  0
   -1.5224    3.3968   -1.4140 C   0  0  0  0  0  0  0  0  0  0  0  0
   -2.2437    4.7510   -1.4044 C   0  0  0  0  0  0  0  0  0  0  0  0
   -2.1872    4.0406    0.8852 C   0  0  0  0  0  0  0  0  0  0  0  0
   -2.6421    6.1150    0.2892 H   0  0  0  0  0  0  0  0  0  0  0  0
   -0.6625    2.5306    0.4088 H   0  0  0  0  0  0  0  0  0  0  0  0
   -0.4608    3.5391   -1.6612 H   0  0  0  0  0  0  0  0  0  0  0  0
   -1.9000    5.4250   -2.2011 H   0  0  0  0  0  0  0  0  0  0  0  0
   -3.2652    3.8993    1.0723 H   0  0  0  0  0  0  0  0  0  0  0  0
    0.7925   -2.2603    2.5882 H   0  0  0  0  0  0  0  0  0  0  0  0
    3.2208   -2.9577    0.8661 H   0  0  0  0  0  0  0  0  0  0  0  0
    1.6777   -0.0691    2.9495 H   0  0  0  0  0  0  0  0  0  0  0  0
    1.4467    0.4951    0.6909 H   0  0  0  0  0  0  0  0  0  0  0  0
    2.3589   -1.6183   -0.9120 H   0  0  0  0  0  0  0  0  0  0  0  0
   -0.9438    5.6357    0.0863 H   0  0  0  0  0  0  0  0  0  0  0  0
   -2.2258    1.9257    0.1592 H   0  0  0  0  0  0  0  0  0  0  0  0
   -1.9345    2.6957   -2.1563 H   0  0  0  0  0  0  0  0  0  0  0  0
   -3.3278    4.5966   -1.5410 H   0  0  0  0  0  0  0  0  0  0  0  0
   -1.6976    4.1150    1.8655 H   0  0  0  0  0  0  0  0  0  0  0  0
  1  2  1  0  0  0  0
  1 19  1  0  0  0  0
  1 20  1  0  0  0  0
  1 21  1  0  0  0  0
  2  3  1  6  0  0  0
  2 28  1  0  0  0  0
  3 22  1  0  0  0  0
  3 23  1  0  0  0  0
  3 24  1  0  0  0  0
  4  5  1  0  0  0  0
  4  6  1  0  0  0  0
  4 29  1  0  0  0  0
  4 30  1  6  0  0  0
  5 31  1  0  0  0  0
  5 32  1  0  0  0  0
  5 33  1  0  0  0  0
  6  7  1  0  0  0  0
  6  8  1  0  0  0  0
  7 14  2  0  0  0  0
  7 18  1  0  0  0  0
  8  9  2  0  0  0  0
  8 13  1  0  0  0  0
  9 10  1  0  0  0  0
  9 34  1  0  0  0  0
 10 11  2  0  0  0  0
 10 35  1  0  0  0  0
 11 12  1  0  0  0  0
 11 36  1  0  0  0  0
 12 13  2  0  0  0  0
 12 37  1  0  0  0  0
 13 38  1  0  0  0  0
 14 15  1  0  0  0  0
 14 39  1  0  0  0  0
 15 16  2  0  0  0  0
 15 40  1  0  0  0  0
 16 17  1  0  0  0  0
 16 41  1  0  0  0  0
 17 18  2  0  0  0  0
 17 42  1  0  0  0  0
 18 43  1  0  0  0  0
 19 44  1  0  0  0  0
 19 45  1  0  0  0  0
 19 46  1  0  0  0  0
 20 47  1  0  0  0  0
 20 48  1  0  0  0  0
 20 49  1  0  0  0  0
 21 50  1  0  0  0  0
 21 51  1  0  0  0  0
 21 52  1  0  0  0  0
 22 53  1  0  0  0  0
 22 54  1  0  0  0  0
 22 55  1  0  0  0  0
 23 56  1  0  0  0  0
 23 57  1  0  0  0  0
 23 58  1  0  0  0  0
 24 59  1  0  0  0  0
 24 60  1  0  0  0  0
 24 61  1  0  0  0  0
 25 26  1  0  0  0  0
 25 27  1  0  0  0  0
 25 62  1  0  0  0  0
 25 76  1  0  0  0  0
 26 29  1  0  0  0  0
 26 63  1  0  0  0  0
 26 77  1  0  0  0  0
 27 28  1  0  0  0  0
 27 64  1  0  0  0  0
 27 78  1  0  0  0  0
 28 29  1  0  0  0  0
 28 79  1  6  0  0  0
 29 80  1  6  0  0  0
 33 72  1  0  0  0  0
 50 72  1  0  0  0  0
 65 82  1  0  0  0  0
 66 69  1  0  0  0  0
 66 70  1  0  0  0  0
 66 71  1  0  0  0  0
 66 81  1  0  0  0  0
 67 68  1  0  0  0  0
 67 70  1  0  0  0  0
 67 72  1  0  0  0  0
 67 82  1  0  0  0  0
 68 69  1  0  0  0  0
 68 73  1  0  0  0  0
 68 83  1  0  0  0  0
 69 74  1  0  0  0  0
 69 84  1  0  0  0  0
 70 75  1  0  0  0  0
 70 85  1  0  0  0  0
M  END
$$$$
