Title Card Required
 OpenBabel03192317573D

 35 38  0  0  0  0  0  0  0  0999 V2000
    2.1648    0.7847    0.3182 C   0  0  0  0  0  0  0  0  0  0  0  0
    1.6729    1.8582    1.2555 C   0  0  0  0  0  0  0  0  0  0  0  0
    0.4600    1.2093    1.9462 C   0  0  0  0  0  0  0  0  0  0  0  0
    0.0001   -0.0001    1.0771 C   0  0  0  0  0  0  0  0  0  0  0  0
    1.2315   -0.2460    0.2170 C   0  0  0  0  0  0  0  0  0  0  0  0
   -0.4601   -1.2095    1.9462 C   0  0  0  0  0  0  0  0  0  0  0  0
   -1.6728   -1.8583    1.2551 C   0  0  0  0  0  0  0  0  0  0  0  0
   -2.1646   -0.7847    0.3181 C   0  0  0  0  0  0  0  0  0  0  0  0
   -1.2314    0.2460    0.2169 C   0  0  0  0  0  0  0  0  0  0  0  0
    1.4788   -1.3237   -0.6383 C   0  0  0  0  0  0  0  0  0  0  0  0
    2.6688   -1.3595   -1.3697 C   0  0  0  0  0  0  0  0  0  0  0  0
    3.5982   -0.3242   -1.2526 C   0  0  0  0  0  0  0  0  0  0  0  0
    3.3557    0.7571   -0.4091 C   0  0  0  0  0  0  0  0  0  0  0  0
   -3.3557   -0.7571   -0.4090 C   0  0  0  0  0  0  0  0  0  0  0  0
   -3.5984    0.3244   -1.2523 C   0  0  0  0  0  0  0  0  0  0  0  0
   -2.6689    1.3596   -1.3695 C   0  0  0  0  0  0  0  0  0  0  0  0
   -1.4788    1.3238   -0.6383 C   0  0  0  0  0  0  0  0  0  0  0  0
   -0.5464    2.3060   -0.7204 O   0  0  0  0  0  0  0  0  0  0  0  0
    0.5463   -2.3059   -0.7204 O   0  0  0  0  0  0  0  0  0  0  0  0
    2.4481    2.1711    1.9702 H   0  0  0  0  0  0  0  0  0  0  0  0
    1.3757    2.7412    0.6728 H   0  0  0  0  0  0  0  0  0  0  0  0
    0.7703    0.8156    2.9263 H   0  0  0  0  0  0  0  0  0  0  0  0
   -0.3645    1.9146    2.1194 H   0  0  0  0  0  0  0  0  0  0  0  0
    0.3645   -1.9149    2.1193 H   0  0  0  0  0  0  0  0  0  0  0  0
   -0.7702   -0.8159    2.9263 H   0  0  0  0  0  0  0  0  0  0  0  0
   -1.3753   -2.7411    0.6724 H   0  0  0  0  0  0  0  0  0  0  0  0
   -2.4481   -2.1716    1.9696 H   0  0  0  0  0  0  0  0  0  0  0  0
    2.8669   -2.2060   -2.0325 H   0  0  0  0  0  0  0  0  0  0  0  0
    4.5226   -0.3713   -1.8309 H   0  0  0  0  0  0  0  0  0  0  0  0
    4.0820    1.5664   -0.3186 H   0  0  0  0  0  0  0  0  0  0  0  0
   -4.0819   -1.5664   -0.3185 H   0  0  0  0  0  0  0  0  0  0  0  0
   -4.5229    0.3715   -1.8304 H   0  0  0  0  0  0  0  0  0  0  0  0
   -2.8672    2.2062   -2.0322 H   0  0  0  0  0  0  0  0  0  0  0  0
   -0.8186    2.9555   -1.3781 H   0  0  0  0  0  0  0  0  0  0  0  0
    0.8184   -2.9554   -1.3781 H   0  0  0  0  0  0  0  0  0  0  0  0
  1  2  1  0  0  0  0
  1  5  2  0  0  0  0
  1 13  1  0  0  0  0
  2  3  1  0  0  0  0
  2 20  1  0  0  0  0
  2 21  1  0  0  0  0
  3  4  1  0  0  0  0
  3 22  1  0  0  0  0
  3 23  1  0  0  0  0
  4  5  1  0  0  0  0
  4  6  1  0  0  0  0
  4  9  1  0  0  0  0
  5 10  1  0  0  0  0
  6  7  1  0  0  0  0
  6 24  1  0  0  0  0
  6 25  1  0  0  0  0
  7  8  1  0  0  0  0
  7 26  1  0  0  0  0
  7 27  1  0  0  0  0
  8  9  2  0  0  0  0
  8 14  1  0  0  0  0
  9 17  1  0  0  0  0
 10 11  2  0  0  0  0
 10 19  1  0  0  0  0
 11 12  1  0  0  0  0
 11 28  1  0  0  0  0
 12 13  2  0  0  0  0
 12 29  1  0  0  0  0
 13 30  1  0  0  0  0
 14 15  2  0  0  0  0
 14 31  1  0  0  0  0
 15 16  1  0  0  0  0
 15 32  1  0  0  0  0
 16 17  2  0  0  0  0
 16 33  1  0  0  0  0
 17 18  1  0  0  0  0
 18 34  1  0  0  0  0
 19 35  1  0  0  0  0
M  END
$$$$
