Title Card Required
 OpenBabel03192317573D

 38 40  0  0  1  0  0  0  0  0999 V2000
    0.0402    0.2679    0.3397 C   0  0  0  0  0  0  0  0  0  0  0  0
    0.2807    0.7513    1.6480 O   0  0  0  0  0  0  0  0  0  0  0  0
    2.1062    1.3528   -0.4736 N   0  0  0  0  0  0  0  0  0  0  0  0
    0.6543    1.3274   -0.6118 C   0  0  2  0  0  0  0  0  0  0  0  0
    0.2125    2.7702   -0.2670 C   0  0  0  0  0  0  0  0  0  0  0  0
    1.4504    3.3945    0.3813 C   0  0  0  0  0  0  0  0  0  0  0  0
    2.5824    2.7210   -0.3843 C   0  0  0  0  0  0  0  0  0  0  0  0
   -1.4683    0.0806    0.1380 C   0  0  0  0  0  0  0  0  0  0  0  0
   -2.2346    0.8047   -0.7790 C   0  0  0  0  0  0  0  0  0  0  0  0
   -3.6104    0.5884   -0.8885 C   0  0  0  0  0  0  0  0  0  0  0  0
   -4.2435   -0.3510   -0.0808 C   0  0  0  0  0  0  0  0  0  0  0  0
   -3.4896   -1.0856    0.8357 C   0  0  0  0  0  0  0  0  0  0  0  0
   -2.1182   -0.8742    0.9338 C   0  0  0  0  0  0  0  0  0  0  0  0
    0.7630   -1.0598    0.1053 C   0  0  0  0  0  0  0  0  0  0  0  0
    0.3882   -1.9063   -0.9439 C   0  0  0  0  0  0  0  0  0  0  0  0
    1.0987   -3.0778   -1.1993 C   0  0  0  0  0  0  0  0  0  0  0  0
    2.1916   -3.4198   -0.4032 C   0  0  0  0  0  0  0  0  0  0  0  0
    2.5719   -2.5791    0.6420 C   0  0  0  0  0  0  0  0  0  0  0  0
    1.8664   -1.4018    0.8919 C   0  0  0  0  0  0  0  0  0  0  0  0
   -0.2602    0.2456    2.2649 H   0  0  0  0  0  0  0  0  0  0  0  0
    2.5933    0.7678   -1.1430 H   0  0  0  0  0  0  0  0  0  0  0  0
    0.3414    1.0547   -1.6360 H   0  0  0  0  0  0  0  0  0  0  0  0
   -0.0416    3.3102   -1.1928 H   0  0  0  0  0  0  0  0  0  0  0  0
   -0.6639    2.7888    0.3923 H   0  0  0  0  0  0  0  0  0  0  0  0
    1.4697    4.4905    0.3161 H   0  0  0  0  0  0  0  0  0  0  0  0
    1.4968    3.0907    1.4358 H   0  0  0  0  0  0  0  0  0  0  0  0
    2.7155    3.2125   -1.3713 H   0  0  0  0  0  0  0  0  0  0  0  0
    3.5461    2.7697    0.1449 H   0  0  0  0  0  0  0  0  0  0  0  0
   -1.7692    1.5504   -1.4231 H   0  0  0  0  0  0  0  0  0  0  0  0
   -4.1884    1.1639   -1.6133 H   0  0  0  0  0  0  0  0  0  0  0  0
   -5.3182   -0.5172   -0.1676 H   0  0  0  0  0  0  0  0  0  0  0  0
   -3.9699   -1.8355    1.4661 H   0  0  0  0  0  0  0  0  0  0  0  0
   -1.5299   -1.4860    1.6250 H   0  0  0  0  0  0  0  0  0  0  0  0
   -0.4758   -1.6510   -1.5623 H   0  0  0  0  0  0  0  0  0  0  0  0
    0.7927   -3.7296   -2.0192 H   0  0  0  0  0  0  0  0  0  0  0  0
    2.7452   -4.3398   -0.5978 H   0  0  0  0  0  0  0  0  0  0  0  0
    3.4300   -2.8382    1.2649 H   0  0  0  0  0  0  0  0  0  0  0  0
    2.1674   -0.7226    1.6890 H   0  0  0  0  0  0  0  0  0  0  0  0
  1  2  1  0  0  0  0
  1  4  1  0  0  0  0
  1  8  1  0  0  0  0
  1 14  1  0  0  0  0
  2 20  1  0  0  0  0
  3  4  1  0  0  0  0
  3  7  1  0  0  0  0
  3 21  1  0  0  0  0
  4  5  1  0  0  0  0
  4 22  1  6  0  0  0
  5  6  1  0  0  0  0
  5 23  1  0  0  0  0
  5 24  1  0  0  0  0
  6  7  1  0  0  0  0
  6 25  1  0  0  0  0
  6 26  1  0  0  0  0
  7 27  1  0  0  0  0
  7 28  1  0  0  0  0
  8  9  2  0  0  0  0
  8 13  1  0  0  0  0
  9 10  1  0  0  0  0
  9 29  1  0  0  0  0
 10 11  2  0  0  0  0
 10 30  1  0  0  0  0
 11 12  1  0  0  0  0
 11 31  1  0  0  0  0
 12 13  2  0  0  0  0
 12 32  1  0  0  0  0
 13 33  1  0  0  0  0
 14 15  2  0  0  0  0
 14 19  1  0  0  0  0
 15 16  1  0  0  0  0
 15 34  1  0  0  0  0
 16 17  2  0  0  0  0
 16 35  1  0  0  0  0
 17 18  1  0  0  0  0
 17 36  1  0  0  0  0
 18 19  2  0  0  0  0
 18 37  1  0  0  0  0
 19 38  1  0  0  0  0
M  END
$$$$
