Title Card Required
 OpenBabel03192317423D

103112  0  0  1  0  0  0  0  0999 V2000
   -5.7703   -3.3679    0.2458 C   0  0  0  0  0  0  0  0  0  0  0  0
   -4.4442   -2.6876   -0.2149 C   0  0  0  0  0  0  0  0  0  0  0  0
   -4.5785   -1.3264    0.4748 C   0  0  0  0  0  0  0  0  0  0  0  0
   -2.7052   -3.7988    0.4632 S   0  0  1  0  0  0  0  0  0  0  0  0
   -2.8531   -5.0547   -0.3632 O   0  0  0  0  0  0  0  0  0  0  0  0
   -1.0800   -2.9939   -0.0066 N   0  0  0  0  0  0  0  0  0  0  0  0
   -4.4757   -2.5672   -1.7485 C   0  0  0  0  0  0  0  0  0  0  0  0
    0.0127   -1.5792    0.4962 C   0  0  0  0  0  3  0  0  0  0  0  0
    1.2810   -2.2062    1.2867 C   0  0  0  0  0  0  0  0  0  0  0  0
    2.6023   -1.8183    0.9177 C   0  0  0  0  0  0  0  0  0  0  0  0
    3.4865   -1.5643    1.9849 C   0  0  0  0  0  0  0  0  0  0  0  0
    3.1782   -1.9865    3.2770 C   0  0  0  0  0  0  0  0  0  0  0  0
    2.0279   -2.7528    3.4954 C   0  0  0  0  0  0  0  0  0  0  0  0
    1.0588   -2.8765    2.4927 C   0  0  0  0  0  0  0  0  0  0  0  0
    2.8701   -0.9855   -0.6443 P   0  0  1  0  0  0  0  0  0  0  0  0
    3.7537   -1.6679   -1.9676 C   0  0  0  0  0  0  0  0  0  0  0  0
    5.1863   -1.8415   -1.4520 C   0  0  0  0  0  0  0  0  0  0  0  0
    5.9305   -0.5036   -1.2727 C   0  0  0  0  0  0  0  0  0  0  0  0
    5.9506    0.3227   -2.5504 C   0  0  0  0  0  0  0  0  0  0  0  0
    4.5873    0.4672   -3.2210 C   0  0  0  0  0  0  0  0  0  0  0  0
    3.7489   -0.8201   -3.2499 C   0  0  0  0  0  0  0  0  0  0  0  0
    1.3472   -0.1458   -0.9489 C   0  0  0  0  0  3  0  0  0  0  0  0
    1.6627    0.4841    0.8605 C   0  0  0  0  0  0  0  0  0  0  0  0
    0.4603   -0.1389    2.2703 C   0  0  0  0  0  0  0  0  0  0  0  0
   -1.3466   -0.5499    1.8179 C   0  0  0  0  0  0  0  0  0  0  0  0
   -1.8401   -0.8903   -0.0433 C   0  0  0  0  0  0  0  0  0  0  0  0
   -0.3680   -0.9881   -1.4993 C   0  0  0  0  0  3  0  0  0  0  0  0
   -0.4148    0.4501    0.0829 C   0  0  2  0  0  3  0  0  0  0  0  0
   -0.3070    1.5845    0.9075 C   0  0  0  0  0  0  0  0  0  0  0  0
   -0.5034    2.9138    1.0340 C   0  0  2  0  0  3  0  0  0  0  0  0
   -1.3462    3.3679    0.0503 C   0  0  1  0  0  3  0  0  0  0  0  0
   -1.6498    2.4519   -1.0435 C   0  0  2  0  0  3  0  0  0  0  0  0
   -1.1087    1.1482   -1.0164 C   0  0  0  0  0  3  0  0  0  0  0  0
   -2.1066    4.4712    0.1502 O   0  0  0  0  0  0  0  0  0  0  0  0
   -1.4719    5.6126    0.6689 C   0  0  0  0  0  0  0  0  0  0  0  0
   -2.4372    2.6518   -2.3725 C   0  0  0  0  0  0  0  0  0  0  0  0
   -1.3202    2.9467   -3.4017 C   0  0  0  0  0  0  0  0  0  0  0  0
   -3.2192    1.3794   -2.9565 C   0  0  0  0  0  0  0  0  0  0  0  0
   -3.5025    3.7110   -2.2122 C   0  0  0  0  0  0  0  0  0  0  0  0
    0.3778    3.4404    2.3454 C   0  0  0  0  0  0  0  0  0  0  0  0
    1.6186    4.1624    1.7762 C   0  0  0  0  0  0  0  0  0  0  0  0
   -0.6254    4.0844    3.2753 C   0  0  0  0  0  0  0  0  0  0  0  0
    1.2598    2.5784    3.5154 C   0  0  0  0  0  0  0  0  0  0  0  0
   -5.8314   -3.4736    1.3336 H   0  0  0  0  0  0  0  0  0  0  0  0
   -6.0108   -4.3128   -0.2419 H   0  0  0  0  0  0  0  0  0  0  0  0
   -6.6131   -2.6959   -0.0225 H   0  0  0  0  0  0  0  0  0  0  0  0
   -4.1406   -1.3291    1.4740 H   0  0  0  0  0  0  0  0  0  0  0  0
   -4.1855   -0.5789   -0.1953 H   0  0  0  0  0  0  0  0  0  0  0  0
   -5.5978   -0.9340    0.5431 H   0  0  0  0  0  0  0  0  0  0  0  0
   -0.4554   -3.6403   -0.4955 H   0  0  0  0  0  0  0  0  0  0  0  0
   -4.8773   -3.4650   -2.2332 H   0  0  0  0  0  0  0  0  0  0  0  0
   -5.1610   -1.7514   -2.0366 H   0  0  0  0  0  0  0  0  0  0  0  0
   -3.5020   -2.3360   -2.1792 H   0  0  0  0  0  0  0  0  0  0  0  0
    0.6359   -1.9426   -0.3256 H   0  0  0  0  0  0  0  0  0  0  0  0
    4.3023   -0.8435    1.8609 H   0  0  0  0  0  0  0  0  0  0  0  0
    3.7924   -1.6568    4.1127 H   0  0  0  0  0  0  0  0  0  0  0  0
    1.8045   -3.1034    4.4968 H   0  0  0  0  0  0  0  0  0  0  0  0
    0.0780   -3.2784    2.7216 H   0  0  0  0  0  0  0  0  0  0  0  0
    3.2810   -2.6281   -2.1837 H   0  0  0  0  0  0  0  0  0  0  0  0
    5.1910   -2.3675   -0.4860 H   0  0  0  0  0  0  0  0  0  0  0  0
    5.7270   -2.4777   -2.1540 H   0  0  0  0  0  0  0  0  0  0  0  0
    5.4881    0.1025   -0.4694 H   0  0  0  0  0  0  0  0  0  0  0  0
    6.9550   -0.7094   -0.9464 H   0  0  0  0  0  0  0  0  0  0  0  0
    6.3470    1.3225   -2.3290 H   0  0  0  0  0  0  0  0  0  0  0  0
    6.6511   -0.1405   -3.2528 H   0  0  0  0  0  0  0  0  0  0  0  0
    4.0227    1.2724   -2.7332 H   0  0  0  0  0  0  0  0  0  0  0  0
    4.7447    0.8052   -4.2546 H   0  0  0  0  0  0  0  0  0  0  0  0
    4.1442   -1.4556   -4.0499 H   0  0  0  0  0  0  0  0  0  0  0  0
    2.7260   -0.5541   -3.5544 H   0  0  0  0  0  0  0  0  0  0  0  0
    1.4669    0.7306   -1.6079 H   0  0  0  0  0  0  0  0  0  0  0  0
    2.6907    0.6086    1.2449 H   0  0  0  0  0  0  0  0  0  0  0  0
    1.6826    1.5895    0.6552 H   0  0  0  0  0  0  0  0  0  0  0  0
    0.9758   -0.6341    3.0900 H   0  0  0  0  0  0  0  0  0  0  0  0
    0.2466    0.6353    3.0245 H   0  0  0  0  0  0  0  0  0  0  0  0
   -1.7137   -1.2935    2.5234 H   0  0  0  0  0  0  0  0  0  0  0  0
   -1.9116    0.3650    2.0772 H   0  0  0  0  0  0  0  0  0  0  0  0
   -2.5210   -1.6820   -0.0447 H   0  0  0  0  0  0  0  0  0  0  0  0
   -2.5630   -0.0911   -0.2591 H   0  0  0  0  0  0  0  0  0  0  0  0
   -0.6328   -0.5605   -2.4773 H   0  0  0  0  0  0  0  0  0  0  0  0
   -0.2146   -2.0090   -1.8783 H   0  0  0  0  0  0  0  0  0  0  0  0
    0.1671    1.5536    1.8236 H   0  0  0  0  0  0  0  0  0  0  0  0
   -1.6268    0.5741   -1.7698 H   0  0  0  0  0  0  0  0  0  0  0  0
   -1.6830    5.7403    1.7329 H   0  0  0  0  0  0  0  0  0  0  0  0
   -0.3968    5.6144    0.4784 H   0  0  0  0  0  0  0  0  0  0  0  0
   -1.9149    6.4627    0.1571 H   0  0  0  0  0  0  0  0  0  0  0  0
   -0.7365    2.0336   -3.6091 H   0  0  0  0  0  0  0  0  0  0  0  0
   -1.7168    3.2910   -4.3573 H   0  0  0  0  0  0  0  0  0  0  0  0
   -0.5928    3.6712   -3.0192 H   0  0  0  0  0  0  0  0  0  0  0  0
   -3.8240    0.8838   -2.1859 H   0  0  0  0  0  0  0  0  0  0  0  0
   -3.8764    1.6399   -3.7922 H   0  0  0  0  0  0  0  0  0  0  0  0
   -2.5579    0.6088   -3.3869 H   0  0  0  0  0  0  0  0  0  0  0  0
   -4.2192    3.3770   -1.4487 H   0  0  0  0  0  0  0  0  0  0  0  0
   -3.0869    4.6691   -1.9083 H   0  0  0  0  0  0  0  0  0  0  0  0
   -4.0512    3.8667   -3.1439 H   0  0  0  0  0  0  0  0  0  0  0  0
    1.4809    4.5559    0.7746 H   0  0  0  0  0  0  0  0  0  0  0  0
    1.9721    4.9332    2.4626 H   0  0  0  0  0  0  0  0  0  0  0  0
    2.4711    3.4592    1.6682 H   0  0  0  0  0  0  0  0  0  0  0  0
   -0.7033    3.5580    4.2381 H   0  0  0  0  0  0  0  0  0  0  0  0
   -0.3408    5.1094    3.4770 H   0  0  0  0  0  0  0  0  0  0  0  0
   -1.6416    3.9969    2.8890 H   0  0  0  0  0  0  0  0  0  0  0  0
    0.6689    1.9958    4.2385 H   0  0  0  0  0  0  0  0  0  0  0  0
    2.0689    1.9302    3.1419 H   0  0  0  0  0  0  0  0  0  0  0  0
    1.7794    3.3034    4.1677 H   0  0  0  0  0  0  0  0  0  0  0  0
  1  2  1  0  0  0  0
  1 44  1  0  0  0  0
  1 45  1  0  0  0  0
  1 46  1  0  0  0  0
  2  3  1  0  0  0  0
  2  4  1  0  0  0  0
  2  7  1  0  0  0  0
  3 47  1  0  0  0  0
  3 48  1  0  0  0  0
  3 49  1  0  0  0  0
  4  5  2  6  0  0  0
  4  6  1  0  0  0  0
  6  8  1  0  0  0  0
  6 50  1  0  0  0  0
  7 51  1  0  0  0  0
  7 52  1  0  0  0  0
  7 53  1  0  0  0  0
  8  9  1  0  0  0  0
  8 54  1  0  0  0  0
  9 10  2  0  0  0  0
  9 14  1  0  0  0  0
 10 11  1  0  0  0  0
 10 15  1  0  0  0  0
 11 12  2  0  0  0  0
 11 55  1  0  0  0  0
 12 13  1  0  0  0  0
 12 56  1  0  0  0  0
 13 14  2  0  0  0  0
 13 57  1  0  0  0  0
 14 58  1  0  0  0  0
 15 16  1  6  0  0  0
 15 22  1  0  0  0  0
 16 17  1  0  0  0  0
 16 21  1  0  0  0  0
 16 59  1  0  0  0  0
 17 18  1  0  0  0  0
 17 60  1  0  0  0  0
 17 61  1  0  0  0  0
 18 19  1  0  0  0  0
 18 62  1  0  0  0  0
 18 63  1  0  0  0  0
 19 20  1  0  0  0  0
 19 64  1  0  0  0  0
 19 65  1  0  0  0  0
 20 21  1  0  0  0  0
 20 66  1  0  0  0  0
 20 67  1  0  0  0  0
 21 68  1  0  0  0  0
 21 69  1  0  0  0  0
 22 23  1  0  0  0  0
 22 70  1  0  0  0  0
 23 24  1  0  0  0  0
 23 71  1  0  0  0  0
 23 72  1  0  0  0  0
 24 25  1  0  0  0  0
 24 73  1  0  0  0  0
 24 74  1  0  0  0  0
 25 26  1  0  0  0  0
 25 75  1  0  0  0  0
 25 76  1  0  0  0  0
 26 28  1  0  0  0  0
 26 77  1  0  0  0  0
 26 78  1  0  0  0  0
 27 54  1  0  0  0  0
 27 79  1  0  0  0  0
 27 80  1  0  0  0  0
 28 29  1  0  0  0  0
 28 33  1  6  0  0  0
 29 30  1  0  0  0  0
 29 72  1  0  0  0  0
 29 81  1  0  0  0  0
 30 31  1  0  0  0  0
 30 40  1  6  0  0  0
 31 32  1  0  0  0  0
 31 34  1  1  0  0  0
 32 33  1  0  0  0  0
 32 36  1  6  0  0  0
 33 82  1  0  0  0  0
 34 35  1  0  0  0  0
 35 83  1  0  0  0  0
 35 84  1  0  0  0  0
 35 85  1  0  0  0  0
 36 37  1  0  0  0  0
 36 38  1  0  0  0  0
 36 39  1  0  0  0  0
 37 86  1  0  0  0  0
 37 87  1  0  0  0  0
 37 88  1  0  0  0  0
 38 89  1  0  0  0  0
 38 90  1  0  0  0  0
 38 91  1  0  0  0  0
 39 92  1  0  0  0  0
 39 93  1  0  0  0  0
 39 94  1  0  0  0  0
 40 41  1  0  0  0  0
 40 42  1  0  0  0  0
 40 43  1  0  0  0  0
 41 95  1  0  0  0  0
 41 96  1  0  0  0  0
 41 97  1  0  0  0  0
 42 98  1  0  0  0  0
 42 99  1  0  0  0  0
 42100  1  0  0  0  0
 43101  1  0  0  0  0
 43102  1  0  0  0  0
 43103  1  0  0  0  0
 48 78  1  0  0  0  0
 54 80  1  0  0  0  0
 72 81  1  0  0  0  0
 74 81  1  0  0  0  0
 78 82  1  0  0  0  0
 79 82  1  0  0  0  0
M  END
$$$$
