Title Card Required
 OpenBabel03192317553D

 81 85  0  0  1  0  0  0  0  0999 V2000
    6.0816    0.7871    0.2656 C   0  0  0  0  0  0  0  0  0  0  0  0
    4.7890    1.0135   -0.5178 C   0  0  0  0  0  0  0  0  0  0  0  0
    4.6180   -0.0098   -1.6308 C   0  0  0  0  0  0  0  0  0  0  0  0
    3.4564    0.7243    0.7545 S   0  0  1  0  0  0  0  0  0  0  0  0
    3.6779    1.8235    1.7562 O   0  0  0  0  0  0  0  0  0  0  0  0
    2.1210    1.0926   -0.2236 N   0  0  0  0  0  0  0  0  0  0  0  0
    4.7004    2.4515   -1.0069 C   0  0  0  0  0  0  0  0  0  0  0  0
    0.7932    0.5344    0.0632 C   0  0  1  0  0  0  0  0  0  0  0  0
    0.9162   -0.9047    0.5484 C   0  0  0  0  0  0  0  0  0  0  0  0
    0.7594   -1.2262    1.8782 C   0  0  0  0  0  0  0  0  0  0  0  0
    0.9170   -2.5570    2.3370 C   0  0  0  0  0  0  0  0  0  0  0  0
    1.2192   -3.5602    1.4537 C   0  0  0  0  0  0  0  0  0  0  0  0
    1.3828   -3.2763    0.0696 C   0  0  0  0  0  0  0  0  0  0  0  0
    1.6908   -4.3063   -0.8608 C   0  0  0  0  0  0  0  0  0  0  0  0
    1.8559   -4.0258   -2.1947 C   0  0  0  0  0  0  0  0  0  0  0  0
    1.7191   -2.6952   -2.6574 C   0  0  0  0  0  0  0  0  0  0  0  0
    1.4201   -1.6789   -1.7818 C   0  0  0  0  0  0  0  0  0  0  0  0
    1.2403   -1.9350   -0.3935 C   0  0  0  0  0  0  0  0  0  0  0  0
   -0.0893    1.3757    0.9798 C   0  0  0  0  0  0  0  0  0  0  0  0
   -1.4926    1.2151    0.9278 C   0  0  0  0  0  0  0  0  0  0  0  0
   -2.2763    1.9247    1.8444 C   0  0  0  0  0  0  0  0  0  0  0  0
   -1.7057    2.7969    2.7711 C   0  0  0  0  0  0  0  0  0  0  0  0
   -0.3256    2.9704    2.7918 C   0  0  0  0  0  0  0  0  0  0  0  0
    0.4799    2.2599    1.9009 C   0  0  0  0  0  0  0  0  0  0  0  0
   -2.2165    0.0234   -0.3126 P   0  0  0  0  0  0  0  0  0  0  0  0
   -3.6469   -0.6678    0.6895 C   0  0  0  0  0  0  0  0  0  0  0  0
   -3.0740   -1.5563    1.8103 C   0  0  0  0  0  0  0  0  0  0  0  0
   -2.4506   -2.8474    1.2722 C   0  0  0  0  0  0  0  0  0  0  0  0
   -3.4403   -3.6310    0.4103 C   0  0  0  0  0  0  0  0  0  0  0  0
   -3.9955   -2.7677   -0.7234 C   0  0  0  0  0  0  0  0  0  0  0  0
   -4.6236   -1.4881   -0.1679 C   0  0  0  0  0  0  0  0  0  0  0  0
   -3.0837    1.0692   -1.6143 C   0  0  0  0  0  0  0  0  0  0  0  0
   -2.0985    1.4971   -2.7163 C   0  0  0  0  0  0  0  0  0  0  0  0
   -1.3425    2.7802   -2.3745 C   0  0  0  0  0  0  0  0  0  0  0  0
   -2.3272    3.9181   -2.1138 C   0  0  0  0  0  0  0  0  0  0  0  0
   -3.2552    3.5628   -0.9534 C   0  0  0  0  0  0  0  0  0  0  0  0
   -3.9894    2.2372   -1.1890 C   0  0  0  0  0  0  0  0  0  0  0  0
    6.1341   -0.2407    0.6565 H   0  0  0  0  0  0  0  0  0  0  0  0
    6.1457    1.4874    1.1095 H   0  0  0  0  0  0  0  0  0  0  0  0
    6.9439    0.9449   -0.3992 H   0  0  0  0  0  0  0  0  0  0  0  0
    4.5705   -1.0346   -1.2301 H   0  0  0  0  0  0  0  0  0  0  0  0
    3.6982    0.1769   -2.2000 H   0  0  0  0  0  0  0  0  0  0  0  0
    5.4766    0.0491   -2.3177 H   0  0  0  0  0  0  0  0  0  0  0  0
    2.0917    2.0839   -0.4681 H   0  0  0  0  0  0  0  0  0  0  0  0
    4.6332    3.1357   -0.1480 H   0  0  0  0  0  0  0  0  0  0  0  0
    5.6032    2.7024   -1.5844 H   0  0  0  0  0  0  0  0  0  0  0  0
    3.8339    2.6003   -1.6683 H   0  0  0  0  0  0  0  0  0  0  0  0
    0.2823    0.4912   -0.9094 H   0  0  0  0  0  0  0  0  0  0  0  0
    0.5151   -0.4411    2.5962 H   0  0  0  0  0  0  0  0  0  0  0  0
    0.7909   -2.7748    3.3985 H   0  0  0  0  0  0  0  0  0  0  0  0
    1.3359   -4.5905    1.7962 H   0  0  0  0  0  0  0  0  0  0  0  0
    1.7943   -5.3284   -0.4904 H   0  0  0  0  0  0  0  0  0  0  0  0
    2.0918   -4.8245   -2.8994 H   0  0  0  0  0  0  0  0  0  0  0  0
    1.8529   -2.4760   -3.7179 H   0  0  0  0  0  0  0  0  0  0  0  0
    1.3367   -0.6574   -2.1534 H   0  0  0  0  0  0  0  0  0  0  0  0
   -3.3625    1.8168    1.8311 H   0  0  0  0  0  0  0  0  0  0  0  0
   -2.3426    3.3422    3.4694 H   0  0  0  0  0  0  0  0  0  0  0  0
    0.1348    3.6512    3.5095 H   0  0  0  0  0  0  0  0  0  0  0  0
    1.5655    2.3757    1.9471 H   0  0  0  0  0  0  0  0  0  0  0  0
   -4.2120    0.1609    1.1429 H   0  0  0  0  0  0  0  0  0  0  0  0
   -2.3357   -0.9945    2.4057 H   0  0  0  0  0  0  0  0  0  0  0  0
   -3.9010   -1.8141    2.4958 H   0  0  0  0  0  0  0  0  0  0  0  0
   -1.5562   -2.6036    0.6738 H   0  0  0  0  0  0  0  0  0  0  0  0
   -2.1017   -3.4664    2.1132 H   0  0  0  0  0  0  0  0  0  0  0  0
   -2.9605   -4.5344    0.0043 H   0  0  0  0  0  0  0  0  0  0  0  0
   -4.2804   -3.9733    1.0411 H   0  0  0  0  0  0  0  0  0  0  0  0
   -3.1789   -2.5140   -1.4207 H   0  0  0  0  0  0  0  0  0  0  0  0
   -4.7448   -3.3298   -1.3015 H   0  0  0  0  0  0  0  0  0  0  0  0
   -5.4734   -1.7685    0.4797 H   0  0  0  0  0  0  0  0  0  0  0  0
   -5.0526   -0.8748   -0.9751 H   0  0  0  0  0  0  0  0  0  0  0  0
   -3.7272    0.2935   -2.0621 H   0  0  0  0  0  0  0  0  0  0  0  0
   -1.4032    0.6702   -2.9330 H   0  0  0  0  0  0  0  0  0  0  0  0
   -2.6714    1.6776   -3.6436 H   0  0  0  0  0  0  0  0  0  0  0  0
   -0.7248    2.6273   -1.4712 H   0  0  0  0  0  0  0  0  0  0  0  0
   -0.6554    3.0402   -3.1944 H   0  0  0  0  0  0  0  0  0  0  0  0
   -1.7918    4.8544   -1.8964 H   0  0  0  0  0  0  0  0  0  0  0  0
   -2.9207    4.0958   -3.0285 H   0  0  0  0  0  0  0  0  0  0  0  0
   -2.6544    3.5084   -0.0344 H   0  0  0  0  0  0  0  0  0  0  0  0
   -3.9970    4.3613   -0.7972 H   0  0  0  0  0  0  0  0  0  0  0  0
   -4.7247    2.3972   -1.9985 H   0  0  0  0  0  0  0  0  0  0  0  0
   -4.5802    1.9623   -0.2988 H   0  0  0  0  0  0  0  0  0  0  0  0
  1  2  1  0  0  0  0
  1 38  1  0  0  0  0
  1 39  1  0  0  0  0
  1 40  1  0  0  0  0
  2  3  1  0  0  0  0
  2  4  1  0  0  0  0
  2  7  1  0  0  0  0
  3 41  1  0  0  0  0
  3 42  1  0  0  0  0
  3 43  1  0  0  0  0
  4  5  2  1  0  0  0
  4  6  1  0  0  0  0
  6  8  1  0  0  0  0
  6 44  1  0  0  0  0
  7 45  1  0  0  0  0
  7 46  1  0  0  0  0
  7 47  1  0  0  0  0
  8  9  1  0  0  0  0
  8 19  1  0  0  0  0
  8 48  1  6  0  0  0
  9 10  2  0  0  0  0
  9 18  1  0  0  0  0
 10 11  1  0  0  0  0
 10 49  1  0  0  0  0
 11 12  2  0  0  0  0
 11 50  1  0  0  0  0
 12 13  1  0  0  0  0
 12 51  1  0  0  0  0
 13 14  2  0  0  0  0
 13 18  1  0  0  0  0
 14 15  1  0  0  0  0
 14 52  1  0  0  0  0
 15 16  2  0  0  0  0
 15 53  1  0  0  0  0
 16 17  1  0  0  0  0
 16 54  1  0  0  0  0
 17 18  2  0  0  0  0
 17 55  1  0  0  0  0
 19 20  2  0  0  0  0
 19 24  1  0  0  0  0
 20 21  1  0  0  0  0
 20 25  1  0  0  0  0
 21 22  2  0  0  0  0
 21 56  1  0  0  0  0
 22 23  1  0  0  0  0
 22 57  1  0  0  0  0
 23 24  2  0  0  0  0
 23 58  1  0  0  0  0
 24 59  1  0  0  0  0
 25 26  1  0  0  0  0
 25 32  1  0  0  0  0
 26 27  1  0  0  0  0
 26 31  1  0  0  0  0
 26 60  1  0  0  0  0
 27 28  1  0  0  0  0
 27 61  1  0  0  0  0
 27 62  1  0  0  0  0
 28 29  1  0  0  0  0
 28 63  1  0  0  0  0
 28 64  1  0  0  0  0
 29 30  1  0  0  0  0
 29 65  1  0  0  0  0
 29 66  1  0  0  0  0
 30 31  1  0  0  0  0
 30 67  1  0  0  0  0
 30 68  1  0  0  0  0
 31 69  1  0  0  0  0
 31 70  1  0  0  0  0
 32 33  1  0  0  0  0
 32 37  1  0  0  0  0
 32 71  1  0  0  0  0
 33 34  1  0  0  0  0
 33 72  1  0  0  0  0
 33 73  1  0  0  0  0
 34 35  1  0  0  0  0
 34 74  1  0  0  0  0
 34 75  1  0  0  0  0
 35 36  1  0  0  0  0
 35 76  1  0  0  0  0
 35 77  1  0  0  0  0
 36 37  1  0  0  0  0
 36 78  1  0  0  0  0
 36 79  1  0  0  0  0
 37 80  1  0  0  0  0
 37 81  1  0  0  0  0
M  END
$$$$
