Title Card Required
 OpenBabel03192317433D

 91 96  0  0  1  0  0  0  0  0999 V2000
    0.5531   -1.5980    1.2968 O   0  0  0  0  0  0  0  0  0  0  0  0
    0.4464   -0.3418    0.8049 C   0  0  0  0  0  0  0  0  0  0  0  0
    0.9524    0.6073    1.4683 N   0  0  0  0  0  0  0  0  0  0  0  0
    1.5525    0.0332    2.6686 C   0  0  1  0  0  0  0  0  0  0  0  0
    1.3695   -1.5001    2.4684 C   0  0  0  0  0  0  0  0  0  0  0  0
   -0.2031   -0.1650   -0.5522 C   0  0  0  0  0  0  0  0  0  0  0  0
   -3.3529    1.2022    0.6249 C   0  0  0  0  0  0  0  0  0  0  0  0
   -3.2224    1.9094   -0.7595 C   0  0  2  0  0  0  0  0  0  0  0  0
   -1.9389    1.4356   -1.2749 N   0  0  0  0  0  0  0  0  0  0  0  0
   -1.4395    0.6863   -0.3836 C   0  0  0  0  0  0  0  0  0  0  0  0
   -2.1115    0.5107    0.7671 O   0  0  0  0  0  0  0  0  0  0  0  0
    0.7878    0.6108   -1.4473 C   0  0  0  0  0  0  0  0  0  0  0  0
   -0.6813   -1.5070   -1.2061 C   0  0  0  0  0  0  0  0  0  0  0  0
   -3.3123    3.4187   -0.6725 C   0  0  0  0  0  0  0  0  0  0  0  0
    3.0017    0.4341    2.8485 C   0  0  0  0  0  0  0  0  0  0  0  0
   -2.0818   -1.9351   -0.8320 C   0  0  0  0  0  0  0  0  0  0  0  0
    2.2066    0.0917   -1.5501 C   0  0  0  0  0  0  0  0  0  0  0  0
   -3.1727   -1.5337   -1.6131 C   0  0  0  0  0  0  0  0  0  0  0  0
   -4.4745   -1.8601   -1.2472 C   0  0  0  0  0  0  0  0  0  0  0  0
   -4.7446   -2.5977   -0.0845 C   0  0  0  0  0  0  0  0  0  0  0  0
   -3.6483   -3.0071    0.6827 C   0  0  0  0  0  0  0  0  0  0  0  0
   -2.3408   -2.6844    0.3154 C   0  0  0  0  0  0  0  0  0  0  0  0
    2.6306   -1.1814   -1.1667 C   0  0  0  0  0  0  0  0  0  0  0  0
    3.9707   -1.5662   -1.2757 C   0  0  0  0  0  0  0  0  0  0  0  0
    4.9454   -0.6982   -1.7696 C   0  0  0  0  0  0  0  0  0  0  0  0
    4.5184    0.5873   -2.1418 C   0  0  0  0  0  0  0  0  0  0  0  0
    3.1874    0.9696   -2.0364 C   0  0  0  0  0  0  0  0  0  0  0  0
   -6.1948   -2.9124    0.2945 C   0  0  0  0  0  0  0  0  0  0  0  0
    6.4170   -1.0923   -1.9252 C   0  0  0  0  0  0  0  0  0  0  0  0
    6.6638   -2.5488   -1.5235 C   0  0  0  0  0  0  0  0  0  0  0  0
    6.8338   -0.9179   -3.3947 C   0  0  0  0  0  0  0  0  0  0  0  0
    7.2871   -0.1904   -1.0356 C   0  0  0  0  0  0  0  0  0  0  0  0
   -6.8647   -3.6932   -0.8475 C   0  0  0  0  0  0  0  0  0  0  0  0
   -6.2842   -3.7512    1.5720 C   0  0  0  0  0  0  0  0  0  0  0  0
   -6.9497   -1.5930    0.5253 C   0  0  0  0  0  0  0  0  0  0  0  0
   -2.1658    4.2135   -0.6085 C   0  0  0  0  0  0  0  0  0  0  0  0
   -2.2755    5.5970   -0.4690 C   0  0  0  0  0  0  0  0  0  0  0  0
   -3.5300    6.1995   -0.3921 C   0  0  0  0  0  0  0  0  0  0  0  0
   -4.6790    5.4114   -0.4597 C   0  0  0  0  0  0  0  0  0  0  0  0
   -4.5682    4.0304   -0.6028 C   0  0  0  0  0  0  0  0  0  0  0  0
    3.5827    0.4052    4.1198 C   0  0  0  0  0  0  0  0  0  0  0  0
    4.9299    0.7195    4.2925 C   0  0  0  0  0  0  0  0  0  0  0  0
    5.7087    1.0786    3.1929 C   0  0  0  0  0  0  0  0  0  0  0  0
    5.1319    1.1179    1.9236 C   0  0  0  0  0  0  0  0  0  0  0  0
    3.7880    0.7918    1.7490 C   0  0  0  0  0  0  0  0  0  0  0  0
    0.9848    0.3809    3.5471 H   0  0  0  0  0  0  0  0  0  0  0  0
    2.3270   -2.0045    2.2691 H   0  0  0  0  0  0  0  0  0  0  0  0
    0.8561   -1.9982    3.3003 H   0  0  0  0  0  0  0  0  0  0  0  0
   -3.4636    1.9092    1.4579 H   0  0  0  0  0  0  0  0  0  0  0  0
   -4.1622    0.4579    0.6484 H   0  0  0  0  0  0  0  0  0  0  0  0
   -4.0182    1.5577   -1.4366 H   0  0  0  0  0  0  0  0  0  0  0  0
    0.3330    0.7009   -2.4457 H   0  0  0  0  0  0  0  0  0  0  0  0
    0.8432    1.6330   -1.0462 H   0  0  0  0  0  0  0  0  0  0  0  0
   -0.6382   -1.3552   -2.2936 H   0  0  0  0  0  0  0  0  0  0  0  0
    0.0195   -2.3097   -0.9529 H   0  0  0  0  0  0  0  0  0  0  0  0
   -2.9941   -0.9460   -2.5170 H   0  0  0  0  0  0  0  0  0  0  0  0
   -5.2975   -1.5323   -1.8869 H   0  0  0  0  0  0  0  0  0  0  0  0
   -3.8022   -3.5881    1.5918 H   0  0  0  0  0  0  0  0  0  0  0  0
   -1.5053   -2.9996    0.9432 H   0  0  0  0  0  0  0  0  0  0  0  0
    1.9265   -1.8999   -0.7498 H   0  0  0  0  0  0  0  0  0  0  0  0
    4.2418   -2.5736   -0.9608 H   0  0  0  0  0  0  0  0  0  0  0  0
    5.2416    1.3110   -2.5249 H   0  0  0  0  0  0  0  0  0  0  0  0
    2.8962    1.9816   -2.3286 H   0  0  0  0  0  0  0  0  0  0  0  0
    6.0745   -3.2424   -2.1415 H   0  0  0  0  0  0  0  0  0  0  0  0
    7.7272   -2.7938   -1.6615 H   0  0  0  0  0  0  0  0  0  0  0  0
    6.4128   -2.7244   -0.4672 H   0  0  0  0  0  0  0  0  0  0  0  0
    6.7313    0.1256   -3.7247 H   0  0  0  0  0  0  0  0  0  0  0  0
    7.8864   -1.2116   -3.5278 H   0  0  0  0  0  0  0  0  0  0  0  0
    6.2129   -1.5444   -4.0521 H   0  0  0  0  0  0  0  0  0  0  0  0
    7.1414    0.8735   -1.2747 H   0  0  0  0  0  0  0  0  0  0  0  0
    7.0398   -0.3405    0.0258 H   0  0  0  0  0  0  0  0  0  0  0  0
    8.3528   -0.4268   -1.1796 H   0  0  0  0  0  0  0  0  0  0  0  0
   -6.3366   -4.6402   -1.0328 H   0  0  0  0  0  0  0  0  0  0  0  0
   -7.9101   -3.9234   -0.5900 H   0  0  0  0  0  0  0  0  0  0  0  0
   -6.8672   -3.1177   -1.7842 H   0  0  0  0  0  0  0  0  0  0  0  0
   -5.8440   -3.2258    2.4322 H   0  0  0  0  0  0  0  0  0  0  0  0
   -7.3391   -3.9562    1.8064 H   0  0  0  0  0  0  0  0  0  0  0  0
   -5.7709   -4.7173    1.4563 H   0  0  0  0  0  0  0  0  0  0  0  0
   -6.4908   -1.0233    1.3477 H   0  0  0  0  0  0  0  0  0  0  0  0
   -6.9415   -0.9604   -0.3746 H   0  0  0  0  0  0  0  0  0  0  0  0
   -7.9999   -1.7931    0.7885 H   0  0  0  0  0  0  0  0  0  0  0  0
   -1.1860    3.7389   -0.6798 H   0  0  0  0  0  0  0  0  0  0  0  0
   -1.3727    6.2085   -0.4241 H   0  0  0  0  0  0  0  0  0  0  0  0
   -3.6133    7.2820   -0.2842 H   0  0  0  0  0  0  0  0  0  0  0  0
   -5.6654    5.8753   -0.4062 H   0  0  0  0  0  0  0  0  0  0  0  0
   -5.4708    3.4163   -0.6635 H   0  0  0  0  0  0  0  0  0  0  0  0
    2.9716    0.1406    4.9870 H   0  0  0  0  0  0  0  0  0  0  0  0
    5.3697    0.6935    5.2909 H   0  0  0  0  0  0  0  0  0  0  0  0
    6.7609    1.3344    3.3270 H   0  0  0  0  0  0  0  0  0  0  0  0
    5.7271    1.4113    1.0569 H   0  0  0  0  0  0  0  0  0  0  0  0
    3.3409    0.8290    0.7540 H   0  0  0  0  0  0  0  0  0  0  0  0
  1  2  1  0  0  0  0
  1  5  1  0  0  0  0
  2  3  2  0  0  0  0
  2  6  1  0  0  0  0
  3  4  1  0  0  0  0
  4  5  1  0  0  0  0
  4 15  1  0  0  0  0
  4 46  1  1  0  0  0
  5 47  1  0  0  0  0
  5 48  1  0  0  0  0
  6 10  1  0  0  0  0
  6 12  1  0  0  0  0
  6 13  1  0  0  0  0
  7  8  1  0  0  0  0
  7 11  1  0  0  0  0
  7 49  1  0  0  0  0
  7 50  1  0  0  0  0
  8  9  1  0  0  0  0
  8 14  1  0  0  0  0
  8 51  1  6  0  0  0
  9 10  2  0  0  0  0
 10 11  1  0  0  0  0
 12 17  1  0  0  0  0
 12 52  1  0  0  0  0
 12 53  1  0  0  0  0
 13 16  1  0  0  0  0
 13 54  1  0  0  0  0
 13 55  1  0  0  0  0
 14 36  2  0  0  0  0
 14 40  1  0  0  0  0
 15 41  2  0  0  0  0
 15 45  1  0  0  0  0
 16 18  2  0  0  0  0
 16 22  1  0  0  0  0
 17 23  2  0  0  0  0
 17 27  1  0  0  0  0
 18 19  1  0  0  0  0
 18 56  1  0  0  0  0
 19 20  2  0  0  0  0
 19 57  1  0  0  0  0
 20 21  1  0  0  0  0
 20 28  1  0  0  0  0
 21 22  2  0  0  0  0
 21 58  1  0  0  0  0
 22 59  1  0  0  0  0
 23 24  1  0  0  0  0
 23 60  1  0  0  0  0
 24 25  2  0  0  0  0
 24 61  1  0  0  0  0
 25 26  1  0  0  0  0
 25 29  1  0  0  0  0
 26 27  2  0  0  0  0
 26 62  1  0  0  0  0
 27 63  1  0  0  0  0
 28 33  1  0  0  0  0
 28 34  1  0  0  0  0
 28 35  1  0  0  0  0
 29 30  1  0  0  0  0
 29 31  1  0  0  0  0
 29 32  1  0  0  0  0
 30 64  1  0  0  0  0
 30 65  1  0  0  0  0
 30 66  1  0  0  0  0
 31 67  1  0  0  0  0
 31 68  1  0  0  0  0
 31 69  1  0  0  0  0
 32 70  1  0  0  0  0
 32 71  1  0  0  0  0
 32 72  1  0  0  0  0
 33 73  1  0  0  0  0
 33 74  1  0  0  0  0
 33 75  1  0  0  0  0
 34 76  1  0  0  0  0
 34 77  1  0  0  0  0
 34 78  1  0  0  0  0
 35 79  1  0  0  0  0
 35 80  1  0  0  0  0
 35 81  1  0  0  0  0
 36 37  1  0  0  0  0
 36 82  1  0  0  0  0
 37 38  2  0  0  0  0
 37 83  1  0  0  0  0
 38 39  1  0  0  0  0
 38 84  1  0  0  0  0
 39 40  2  0  0  0  0
 39 85  1  0  0  0  0
 40 86  1  0  0  0  0
 41 42  1  0  0  0  0
 41 87  1  0  0  0  0
 42 43  2  0  0  0  0
 42 88  1  0  0  0  0
 43 44  1  0  0  0  0
 43 89  1  0  0  0  0
 44 45  2  0  0  0  0
 44 90  1  0  0  0  0
 45 91  1  0  0  0  0
M  END
$$$$
