Title Card Required
 OpenBabel03192317453D

115126  0  0  1  0  0  0  0  0999 V2000
   -0.9457   -0.1952    1.3348 C   0  0  0  0  0  0  0  0  0  0  0  0
   -1.7080   -0.4982    0.0220 C   0  0  1  0  0  0  0  0  0  0  0  0
   -0.7971   -0.6254   -1.2210 C   0  0  0  0  0  0  0  0  0  0  0  0
    0.4530   -1.4610   -1.0709 C   0  0  0  0  0  0  0  0  0  0  0  0
    0.4821   -2.7076   -0.4419 C   0  0  0  0  0  0  0  0  0  0  0  0
    1.6717   -3.4301   -0.3179 C   0  0  0  0  0  0  0  0  0  0  0  0
    2.8804   -2.9409   -0.8225 C   0  0  0  0  0  0  0  0  0  0  0  0
    2.8421   -1.6975   -1.4718 C   0  0  0  0  0  0  0  0  0  0  0  0
    1.6602   -0.9765   -1.5917 C   0  0  0  0  0  0  0  0  0  0  0  0
    4.2077   -3.6757   -0.6677 C   0  0  2  0  0  0  0  0  0  0  0  0
    4.0465   -5.0528    0.0027 C   0  0  0  0  0  0  0  0  0  0  0  0
    5.4030   -5.7550    0.1520 C   0  0  1  0  0  0  0  0  0  0  0  0
    6.0364   -5.9516   -1.2314 C   0  0  0  0  0  0  0  0  0  0  0  0
    6.2305   -4.5846   -1.8995 C   0  0  2  0  0  0  0  0  0  0  0  0
    7.1538   -3.7177   -1.0317 C   0  0  0  0  0  0  0  0  0  0  0  0
    6.5253   -3.5268    0.3556 C   0  0  1  0  0  0  0  0  0  0  0  0
    5.1661   -2.8315    0.2059 C   0  0  0  0  0  0  0  0  0  0  0  0
    6.3295   -4.8951    1.0214 C   0  0  0  0  0  0  0  0  0  0  0  0
    4.8697   -3.8917   -2.0484 C   0  0  0  0  0  0  0  0  0  0  0  0
   -0.0630    1.0237    1.2405 C   0  0  0  0  0  0  0  0  0  0  0  0
   -0.6068    2.3151    1.2672 C   0  0  0  0  0  0  0  0  0  0  0  0
    0.2034    3.4366    1.1363 C   0  0  0  0  0  0  0  0  0  0  0  0
    1.5938    3.3238    0.9790 C   0  0  0  0  0  0  0  0  0  0  0  0
    2.1342    2.0341    0.9799 C   0  0  0  0  0  0  0  0  0  0  0  0
    1.3211    0.9064    1.1105 C   0  0  0  0  0  0  0  0  0  0  0  0
    2.4416    4.5807    0.8116 C   0  0  2  0  0  0  0  0  0  0  0  0
    2.2503    5.5250    2.0209 C   0  0  0  0  0  0  0  0  0  0  0  0
    3.0632    6.8139    1.8426 C   0  0  1  0  0  0  0  0  0  0  0  0
    4.5522    6.4653    1.7254 C   0  0  0  0  0  0  0  0  0  0  0  0
    4.7642    5.5488    0.5140 C   0  0  2  0  0  0  0  0  0  0  0  0
    4.3134    6.2718   -0.7615 C   0  0  0  0  0  0  0  0  0  0  0  0
    2.8244    6.6216   -0.6470 C   0  0  1  0  0  0  0  0  0  0  0  0
    2.0097    5.3338   -0.4685 C   0  0  0  0  0  0  0  0  0  0  0  0
    2.6048    7.5345    0.5670 C   0  0  0  0  0  0  0  0  0  0  0  0
    3.9440    4.2647    0.6906 C   0  0  0  0  0  0  0  0  0  0  0  0
   -3.3968   -2.0040   -0.8161 O   0  0  0  0  0  0  0  0  0  0  0  0
   -2.5584   -1.7334    0.2143 C   0  0  0  0  0  0  0  0  0  0  0  0
   -2.5917   -2.4913    1.2270 N   0  0  0  0  0  0  0  0  0  0  0  0
   -3.6537   -3.4729    0.9940 C   0  0  2  0  0  0  0  0  0  0  0  0
   -4.0555   -3.2296   -0.4891 C   0  0  0  0  0  0  0  0  0  0  0  0
   -4.8071   -3.2781    1.9585 C   0  0  0  0  0  0  0  0  0  0  0  0
   -5.5153   -4.3801    2.4424 C   0  0  0  0  0  0  0  0  0  0  0  0
   -6.6159   -4.2041    3.2804 C   0  0  0  0  0  0  0  0  0  0  0  0
   -7.0157   -2.9195    3.6439 C   0  0  0  0  0  0  0  0  0  0  0  0
   -6.3096   -1.8152    3.1663 C   0  0  0  0  0  0  0  0  0  0  0  0
   -5.2101   -1.9905    2.3283 C   0  0  0  0  0  0  0  0  0  0  0  0
   -3.6193    0.7849    0.7469 O   0  0  0  0  0  0  0  0  0  0  0  0
   -2.7148    0.5985   -0.2486 C   0  0  0  0  0  0  0  0  0  0  0  0
   -2.8065    1.3184   -1.2821 N   0  0  0  0  0  0  0  0  0  0  0  0
   -3.9761    2.1799   -1.1120 C   0  0  2  0  0  0  0  0  0  0  0  0
   -4.4853    1.8390    0.3212 C   0  0  0  0  0  0  0  0  0  0  0  0
   -5.0218    1.9265   -2.1784 C   0  0  0  0  0  0  0  0  0  0  0  0
   -5.2544    0.6278   -2.6433 C   0  0  0  0  0  0  0  0  0  0  0  0
   -6.2629    0.3883   -3.5747 C   0  0  0  0  0  0  0  0  0  0  0  0
   -7.0476    1.4397   -4.0499 C   0  0  0  0  0  0  0  0  0  0  0  0
   -6.8169    2.7353   -3.5918 C   0  0  0  0  0  0  0  0  0  0  0  0
   -5.8059    2.9758   -2.6616 C   0  0  0  0  0  0  0  0  0  0  0  0
   -0.3494   -1.0804    1.5896 H   0  0  0  0  0  0  0  0  0  0  0  0
   -1.6920   -0.0765    2.1326 H   0  0  0  0  0  0  0  0  0  0  0  0
   -1.4194   -1.0016   -2.0482 H   0  0  0  0  0  0  0  0  0  0  0  0
   -0.5086    0.3943   -1.5091 H   0  0  0  0  0  0  0  0  0  0  0  0
   -0.4267   -3.1263   -0.0071 H   0  0  0  0  0  0  0  0  0  0  0  0
    1.6375   -4.3910    0.1945 H   0  0  0  0  0  0  0  0  0  0  0  0
    3.7595   -1.2701   -1.8823 H   0  0  0  0  0  0  0  0  0  0  0  0
    1.6736    0.0015   -2.0786 H   0  0  0  0  0  0  0  0  0  0  0  0
    3.5867   -4.9293    0.9971 H   0  0  0  0  0  0  0  0  0  0  0  0
    3.3651   -5.6787   -0.5979 H   0  0  0  0  0  0  0  0  0  0  0  0
    5.2492   -6.7345    0.6313 H   0  0  0  0  0  0  0  0  0  0  0  0
    7.0058   -6.4675   -1.1336 H   0  0  0  0  0  0  0  0  0  0  0  0
    5.3891   -6.5882   -1.8567 H   0  0  0  0  0  0  0  0  0  0  0  0
    6.6785   -4.7191   -2.8967 H   0  0  0  0  0  0  0  0  0  0  0  0
    8.1421   -4.1969   -0.9363 H   0  0  0  0  0  0  0  0  0  0  0  0
    7.3121   -2.7378   -1.5118 H   0  0  0  0  0  0  0  0  0  0  0  0
    7.1843   -2.9019    0.9786 H   0  0  0  0  0  0  0  0  0  0  0  0
    5.3021   -1.8372   -0.2498 H   0  0  0  0  0  0  0  0  0  0  0  0
    4.7034   -2.6719    1.1944 H   0  0  0  0  0  0  0  0  0  0  0  0
    5.8940   -4.7670    2.0261 H   0  0  0  0  0  0  0  0  0  0  0  0
    7.3027   -5.3972    1.1489 H   0  0  0  0  0  0  0  0  0  0  0  0
    5.0029   -2.9229   -2.5555 H   0  0  0  0  0  0  0  0  0  0  0  0
    4.1976   -4.4958   -2.6803 H   0  0  0  0  0  0  0  0  0  0  0  0
   -1.6832    2.4400    1.4103 H   0  0  0  0  0  0  0  0  0  0  0  0
   -0.2601    4.4253    1.1596 H   0  0  0  0  0  0  0  0  0  0  0  0
    3.2087    1.8852    0.8772 H   0  0  0  0  0  0  0  0  0  0  0  0
    1.7753   -0.0872    1.1049 H   0  0  0  0  0  0  0  0  0  0  0  0
    1.1833    5.7743    2.1343 H   0  0  0  0  0  0  0  0  0  0  0  0
    2.5568    4.9995    2.9406 H   0  0  0  0  0  0  0  0  0  0  0  0
    2.9020    7.4670    2.7146 H   0  0  0  0  0  0  0  0  0  0  0  0
    5.1502    7.3848    1.6141 H   0  0  0  0  0  0  0  0  0  0  0  0
    4.8944    5.9614    2.6442 H   0  0  0  0  0  0  0  0  0  0  0  0
    5.8303    5.2850    0.4324 H   0  0  0  0  0  0  0  0  0  0  0  0
    4.9085    7.1882   -0.9085 H   0  0  0  0  0  0  0  0  0  0  0  0
    4.4828    5.6276   -1.6400 H   0  0  0  0  0  0  0  0  0  0  0  0
    2.4926    7.1363   -1.5624 H   0  0  0  0  0  0  0  0  0  0  0  0
    2.1423    4.6691   -1.3382 H   0  0  0  0  0  0  0  0  0  0  0  0
    0.9362    5.5765   -0.4112 H   0  0  0  0  0  0  0  0  0  0  0  0
    1.5385    7.8029    0.6482 H   0  0  0  0  0  0  0  0  0  0  0  0
    3.1678    8.4739    0.4408 H   0  0  0  0  0  0  0  0  0  0  0  0
    4.1136    3.5974   -0.1707 H   0  0  0  0  0  0  0  0  0  0  0  0
    4.2821    3.7264    1.5918 H   0  0  0  0  0  0  0  0  0  0  0  0
   -3.2530   -4.4880    1.1294 H   0  0  0  0  0  0  0  0  0  0  0  0
   -3.6851   -4.0155   -1.1633 H   0  0  0  0  0  0  0  0  0  0  0  0
   -5.1362   -3.1010   -0.6292 H   0  0  0  0  0  0  0  0  0  0  0  0
   -5.1988   -5.3889    2.1654 H   0  0  0  0  0  0  0  0  0  0  0  0
   -7.1578   -5.0738    3.6556 H   0  0  0  0  0  0  0  0  0  0  0  0
   -7.8724   -2.7788    4.3048 H   0  0  0  0  0  0  0  0  0  0  0  0
   -6.6136   -0.8075    3.4549 H   0  0  0  0  0  0  0  0  0  0  0  0
   -4.6501   -1.1240    1.9671 H   0  0  0  0  0  0  0  0  0  0  0  0
   -3.6582    3.2316   -1.1762 H   0  0  0  0  0  0  0  0  0  0  0  0
   -4.3905    2.6781    1.0247 H   0  0  0  0  0  0  0  0  0  0  0  0
   -5.5205    1.4715    0.3272 H   0  0  0  0  0  0  0  0  0  0  0  0
   -4.6323   -0.1934   -2.2775 H   0  0  0  0  0  0  0  0  0  0  0  0
   -6.4342   -0.6267   -3.9373 H   0  0  0  0  0  0  0  0  0  0  0  0
   -7.8346    1.2503   -4.7815 H   0  0  0  0  0  0  0  0  0  0  0  0
   -7.4217    3.5640   -3.9637 H   0  0  0  0  0  0  0  0  0  0  0  0
   -5.6210    3.9938   -2.3097 H   0  0  0  0  0  0  0  0  0  0  0  0
  1 20  1  0  0  0  0
  1 58  1  0  0  0  0
  1 59  1  0  0  0  0
  2  1  1  1  0  0  0
  2  3  1  0  0  0  0
  2 37  1  0  0  0  0
  2 48  1  0  0  0  0
  3  4  1  0  0  0  0
  3 60  1  0  0  0  0
  3 61  1  0  0  0  0
  4  5  2  0  0  0  0
  4  9  1  0  0  0  0
  5  6  1  0  0  0  0
  5 62  1  0  0  0  0
  6  7  2  0  0  0  0
  6 63  1  0  0  0  0
  7  8  1  0  0  0  0
  8  9  2  0  0  0  0
  8 64  1  0  0  0  0
  9 65  1  0  0  0  0
 10  7  1  6  0  0  0
 10 11  1  0  0  0  0
 10 17  1  0  0  0  0
 10 19  1  0  0  0  0
 11 12  1  0  0  0  0
 11 66  1  0  0  0  0
 11 67  1  0  0  0  0
 12 13  1  0  0  0  0
 12 18  1  0  0  0  0
 12 68  1  1  0  0  0
 13 14  1  0  0  0  0
 13 69  1  0  0  0  0
 13 70  1  0  0  0  0
 14 15  1  0  0  0  0
 14 19  1  0  0  0  0
 14 71  1  6  0  0  0
 15 16  1  0  0  0  0
 15 72  1  0  0  0  0
 15 73  1  0  0  0  0
 16 17  1  0  0  0  0
 16 18  1  0  0  0  0
 16 74  1  1  0  0  0
 17 75  1  0  0  0  0
 17 76  1  0  0  0  0
 18 77  1  0  0  0  0
 18 78  1  0  0  0  0
 19 79  1  0  0  0  0
 19 80  1  0  0  0  0
 20 21  2  0  0  0  0
 20 25  1  0  0  0  0
 21 22  1  0  0  0  0
 21 81  1  0  0  0  0
 22 23  2  0  0  0  0
 22 82  1  0  0  0  0
 23 24  1  0  0  0  0
 24 25  2  0  0  0  0
 24 83  1  0  0  0  0
 25 84  1  0  0  0  0
 26 23  1  1  0  0  0
 26 27  1  0  0  0  0
 26 33  1  0  0  0  0
 26 35  1  0  0  0  0
 27 28  1  0  0  0  0
 27 85  1  0  0  0  0
 27 86  1  0  0  0  0
 28 29  1  0  0  0  0
 28 34  1  0  0  0  0
 28 87  1  1  0  0  0
 29 30  1  0  0  0  0
 29 88  1  0  0  0  0
 29 89  1  0  0  0  0
 30 31  1  0  0  0  0
 30 35  1  0  0  0  0
 30 90  1  6  0  0  0
 31 32  1  0  0  0  0
 31 91  1  0  0  0  0
 31 92  1  0  0  0  0
 32 33  1  0  0  0  0
 32 34  1  0  0  0  0
 32 93  1  6  0  0  0
 33 94  1  0  0  0  0
 33 95  1  0  0  0  0
 34 96  1  0  0  0  0
 34 97  1  0  0  0  0
 35 98  1  0  0  0  0
 35 99  1  0  0  0  0
 36 37  1  0  0  0  0
 36 40  1  0  0  0  0
 37 38  2  0  0  0  0
 38 39  1  0  0  0  0
 39 40  1  0  0  0  0
 39 41  1  0  0  0  0
 39100  1  1  0  0  0
 40101  1  0  0  0  0
 40102  1  0  0  0  0
 41 42  2  0  0  0  0
 41 46  1  0  0  0  0
 42 43  1  0  0  0  0
 42103  1  0  0  0  0
 43 44  2  0  0  0  0
 43104  1  0  0  0  0
 44 45  1  0  0  0  0
 44105  1  0  0  0  0
 45 46  2  0  0  0  0
 45106  1  0  0  0  0
 46107  1  0  0  0  0
 47 48  1  0  0  0  0
 47 51  1  0  0  0  0
 48 49  2  0  0  0  0
 49 50  1  0  0  0  0
 50 51  1  0  0  0  0
 50 52  1  0  0  0  0
 50108  1  6  0  0  0
 51109  1  0  0  0  0
 51110  1  0  0  0  0
 52 53  2  0  0  0  0
 52 57  1  0  0  0  0
 53 54  1  0  0  0  0
 53111  1  0  0  0  0
 54 55  2  0  0  0  0
 54112  1  0  0  0  0
 55 56  1  0  0  0  0
 55113  1  0  0  0  0
 56 57  2  0  0  0  0
 56114  1  0  0  0  0
 57115  1  0  0  0  0
M  END
$$$$
