Title Card Required
 OpenBabel03192317533D

 60 64  0  0  1  0  0  0  0  0999 V2000
    0.1077   -0.6104    1.7336 C   0  0  2  0  0  0  0  0  0  0  0  0
   -1.0475   -0.5356    0.8567 N   0  0  0  0  0  0  0  0  0  0  0  0
   -0.6729   -0.0503   -0.4735 C   0  0  2  0  0  0  0  0  0  0  0  0
    0.8452   -0.3756   -0.5046 C   0  0  1  0  0  0  0  0  0  0  0  0
    1.2250   -0.2189    0.8976 N   0  0  0  0  0  0  0  0  0  0  0  0
    0.3135   -1.9907    2.3664 C   0  0  0  0  0  0  0  0  0  0  0  0
    1.3439   -2.3222    2.8803 O   0  0  0  0  0  0  0  0  0  0  0  0
   -0.7763   -2.7517    2.3231 O   0  0  0  0  0  0  0  0  0  0  0  0
    1.1297   -1.7581   -1.0726 C   0  0  0  0  0  0  0  0  0  0  0  0
    0.7017   -2.0538   -2.3730 C   0  0  0  0  0  0  0  0  0  0  0  0
    0.9576   -3.2982   -2.9410 C   0  0  0  0  0  0  0  0  0  0  0  0
    1.6483   -4.2687   -2.2135 C   0  0  0  0  0  0  0  0  0  0  0  0
    2.0891   -3.9777   -0.9255 C   0  0  0  0  0  0  0  0  0  0  0  0
    1.8365   -2.7269   -0.3571 C   0  0  0  0  0  0  0  0  0  0  0  0
   -0.9608    1.4256   -0.6622 C   0  0  0  0  0  0  0  0  0  0  0  0
   -0.7002    2.3490    0.3579 C   0  0  0  0  0  0  0  0  0  0  0  0
   -0.9521    3.7051    0.1558 C   0  0  0  0  0  0  0  0  0  0  0  0
   -1.4712    4.1501   -1.0600 C   0  0  0  0  0  0  0  0  0  0  0  0
   -1.7422    3.2333   -2.0744 C   0  0  0  0  0  0  0  0  0  0  0  0
   -1.4882    1.8774   -1.8739 C   0  0  0  0  0  0  0  0  0  0  0  0
   -2.2738   -0.2794    1.4406 C   0  0  0  0  0  0  0  0  0  0  0  0
   -3.4330   -0.1994    0.4928 C   0  0  0  0  0  0  0  0  0  0  0  0
   -3.6094   -1.1589   -0.5084 C   0  0  0  0  0  0  0  0  0  0  0  0
   -4.7059   -1.0772   -1.3639 C   0  0  0  0  0  0  0  0  0  0  0  0
   -5.6192   -0.0316   -1.2263 C   0  0  0  0  0  0  0  0  0  0  0  0
   -5.4501    0.9179   -0.2176 C   0  0  0  0  0  0  0  0  0  0  0  0
   -4.3659    0.8273    0.6520 C   0  0  0  0  0  0  0  0  0  0  0  0
   -2.3951   -0.1423    2.6366 O   0  0  0  0  0  0  0  0  0  0  0  0
    2.0792    0.7640    1.3823 C   0  0  0  0  0  0  0  0  0  0  0  0
    3.1893    1.2139    0.4791 C   0  0  0  0  0  0  0  0  0  0  0  0
    3.6004    2.5455    0.5918 C   0  0  0  0  0  0  0  0  0  0  0  0
    4.6525    3.0186   -0.1867 C   0  0  0  0  0  0  0  0  0  0  0  0
    5.3141    2.1570   -1.0625 C   0  0  0  0  0  0  0  0  0  0  0  0
    4.9224    0.8221   -1.1587 C   0  0  0  0  0  0  0  0  0  0  0  0
    3.8589    0.3494   -0.3924 C   0  0  0  0  0  0  0  0  0  0  0  0
    1.9376    1.2390    2.4866 O   0  0  0  0  0  0  0  0  0  0  0  0
    0.0198    0.0874    2.5838 H   0  0  0  0  0  0  0  0  0  0  0  0
   -1.1880   -0.6166   -1.2584 H   0  0  0  0  0  0  0  0  0  0  0  0
    1.3630    0.3768   -1.1144 H   0  0  0  0  0  0  0  0  0  0  0  0
   -0.5784   -3.5678    2.8085 H   0  0  0  0  0  0  0  0  0  0  0  0
    0.1712   -1.2946   -2.9542 H   0  0  0  0  0  0  0  0  0  0  0  0
    0.6206   -3.5109   -3.9567 H   0  0  0  0  0  0  0  0  0  0  0  0
    1.8465   -5.2462   -2.6556 H   0  0  0  0  0  0  0  0  0  0  0  0
    2.6384   -4.7260   -0.3523 H   0  0  0  0  0  0  0  0  0  0  0  0
    2.2007   -2.4992    0.6463 H   0  0  0  0  0  0  0  0  0  0  0  0
   -0.3123    2.0156    1.3246 H   0  0  0  0  0  0  0  0  0  0  0  0
   -0.7480    4.4163    0.9575 H   0  0  0  0  0  0  0  0  0  0  0  0
   -1.6731    5.2113   -1.2131 H   0  0  0  0  0  0  0  0  0  0  0  0
   -2.1617    3.5737   -3.0224 H   0  0  0  0  0  0  0  0  0  0  0  0
   -1.7209    1.1557   -2.6614 H   0  0  0  0  0  0  0  0  0  0  0  0
   -2.8931   -1.9791   -0.5981 H   0  0  0  0  0  0  0  0  0  0  0  0
   -4.8515   -1.8339   -2.1364 H   0  0  0  0  0  0  0  0  0  0  0  0
   -6.4730    0.0374   -1.9023 H   0  0  0  0  0  0  0  0  0  0  0  0
   -6.1711    1.7288   -0.1055 H   0  0  0  0  0  0  0  0  0  0  0  0
   -4.2232    1.5525    1.4547 H   0  0  0  0  0  0  0  0  0  0  0  0
    3.0829    3.1926    1.3014 H   0  0  0  0  0  0  0  0  0  0  0  0
    4.9636    4.0610   -0.1060 H   0  0  0  0  0  0  0  0  0  0  0  0
    6.1433    2.5256   -1.6685 H   0  0  0  0  0  0  0  0  0  0  0  0
    5.4497    0.1429   -1.8298 H   0  0  0  0  0  0  0  0  0  0  0  0
    3.5628   -0.6989   -0.4607 H   0  0  0  0  0  0  0  0  0  0  0  0
  1  2  1  0  0  0  0
  1  5  1  0  0  0  0
  1  6  1  0  0  0  0
  1 37  1  1  0  0  0
  2  3  1  0  0  0  0
  2 21  1  0  0  0  0
  3  4  1  0  0  0  0
  3 15  1  0  0  0  0
  3 38  1  6  0  0  0
  4  5  1  0  0  0  0
  4  9  1  0  0  0  0
  4 39  1  6  0  0  0
  5 29  1  0  0  0  0
  6  7  2  0  0  0  0
  6  8  1  0  0  0  0
  8 40  1  0  0  0  0
  9 10  2  0  0  0  0
  9 14  1  0  0  0  0
 10 11  1  0  0  0  0
 10 41  1  0  0  0  0
 11 12  2  0  0  0  0
 11 42  1  0  0  0  0
 12 13  1  0  0  0  0
 12 43  1  0  0  0  0
 13 14  2  0  0  0  0
 13 44  1  0  0  0  0
 14 45  1  0  0  0  0
 15 16  2  0  0  0  0
 15 20  1  0  0  0  0
 16 17  1  0  0  0  0
 16 46  1  0  0  0  0
 17 18  2  0  0  0  0
 17 47  1  0  0  0  0
 18 19  1  0  0  0  0
 18 48  1  0  0  0  0
 19 20  2  0  0  0  0
 19 49  1  0  0  0  0
 20 50  1  0  0  0  0
 21 22  1  0  0  0  0
 21 28  2  0  0  0  0
 22 23  2  0  0  0  0
 22 27  1  0  0  0  0
 23 24  1  0  0  0  0
 23 51  1  0  0  0  0
 24 25  2  0  0  0  0
 24 52  1  0  0  0  0
 25 26  1  0  0  0  0
 25 53  1  0  0  0  0
 26 27  2  0  0  0  0
 26 54  1  0  0  0  0
 27 55  1  0  0  0  0
 29 30  1  0  0  0  0
 29 36  2  0  0  0  0
 30 31  2  0  0  0  0
 30 35  1  0  0  0  0
 31 32  1  0  0  0  0
 31 56  1  0  0  0  0
 32 33  2  0  0  0  0
 32 57  1  0  0  0  0
 33 34  1  0  0  0  0
 33 58  1  0  0  0  0
 34 35  2  0  0  0  0
 34 59  1  0  0  0  0
 35 60  1  0  0  0  0
M  END
$$$$
