Title Card Required
 OpenBabel03192317443D

 34 36  0  0  1  0  0  0  0  0999 V2000
    1.2808   -1.5614   -0.2607 O   0  0  0  0  0  0  0  0  0  0  0  0
    0.9918   -0.2481   -0.2743 C   0  0  0  0  0  0  0  0  0  0  0  0
    1.9473    0.5828   -0.3725 N   0  0  0  0  0  0  0  0  0  0  0  0
    3.1807   -0.1971   -0.4631 C   0  0  2  0  0  0  0  0  0  0  0  0
    2.7057   -1.6513   -0.2247 C   0  0  0  0  0  0  0  0  0  0  0  0
   -1.3253   -0.8222   -0.0474 N   0  0  0  0  0  0  0  0  0  0  0  0
   -0.4415    0.1325   -0.1845 C   0  0  0  0  0  0  0  0  0  0  0  0
   -0.7660    1.5186   -0.2501 C   0  0  0  0  0  0  0  0  0  0  0  0
   -2.0821    1.8807   -0.1631 C   0  0  0  0  0  0  0  0  0  0  0  0
   -3.0748    0.8754   -0.0128 C   0  0  0  0  0  0  0  0  0  0  0  0
   -4.4614    1.1617    0.0857 C   0  0  0  0  0  0  0  0  0  0  0  0
   -5.3719    0.1430    0.2303 C   0  0  0  0  0  0  0  0  0  0  0  0
   -4.9373   -1.2059    0.2828 C   0  0  0  0  0  0  0  0  0  0  0  0
   -3.6020   -1.5124    0.1894 C   0  0  0  0  0  0  0  0  0  0  0  0
   -2.6366   -0.4791    0.0393 C   0  0  0  0  0  0  0  0  0  0  0  0
    4.2506    0.2789    0.5230 C   0  0  0  0  0  0  0  0  0  0  0  0
    5.5096   -0.5765    0.3983 C   0  0  0  0  0  0  0  0  0  0  0  0
    4.5621    1.7571    0.3141 C   0  0  0  0  0  0  0  0  0  0  0  0
    3.5887   -0.0730   -1.4840 H   0  0  0  0  0  0  0  0  0  0  0  0
    3.0364   -2.3665   -0.9881 H   0  0  0  0  0  0  0  0  0  0  0  0
    3.0058   -2.0228    0.7693 H   0  0  0  0  0  0  0  0  0  0  0  0
    0.0408    2.2408   -0.3671 H   0  0  0  0  0  0  0  0  0  0  0  0
   -2.3830    2.9297   -0.2077 H   0  0  0  0  0  0  0  0  0  0  0  0
   -4.7894    2.2025    0.0448 H   0  0  0  0  0  0  0  0  0  0  0  0
   -6.4366    0.3683    0.3061 H   0  0  0  0  0  0  0  0  0  0  0  0
   -5.6736   -2.0025    0.3990 H   0  0  0  0  0  0  0  0  0  0  0  0
   -3.2352   -2.5385    0.2268 H   0  0  0  0  0  0  0  0  0  0  0  0
    3.8272    0.1472    1.5351 H   0  0  0  0  0  0  0  0  0  0  0  0
    5.9401   -0.4806   -0.6116 H   0  0  0  0  0  0  0  0  0  0  0  0
    6.2742   -0.2531    1.1189 H   0  0  0  0  0  0  0  0  0  0  0  0
    5.3096   -1.6431    0.5813 H   0  0  0  0  0  0  0  0  0  0  0  0
    3.6492    2.3606    0.3920 H   0  0  0  0  0  0  0  0  0  0  0  0
    5.2913    2.1135    1.0560 H   0  0  0  0  0  0  0  0  0  0  0  0
    4.9926    1.9196   -0.6873 H   0  0  0  0  0  0  0  0  0  0  0  0
  1  2  1  0  0  0  0
  1  5  1  0  0  0  0
  2  3  2  0  0  0  0
  2  7  1  0  0  0  0
  3  4  1  0  0  0  0
  4  5  1  0  0  0  0
  4 16  1  0  0  0  0
  4 19  1  6  0  0  0
  5 20  1  0  0  0  0
  5 21  1  0  0  0  0
  6  7  2  0  0  0  0
  6 15  1  0  0  0  0
  7  8  1  0  0  0  0
  8  9  2  0  0  0  0
  8 22  1  0  0  0  0
  9 10  1  0  0  0  0
  9 23  1  0  0  0  0
 10 11  2  0  0  0  0
 10 15  1  0  0  0  0
 11 12  1  0  0  0  0
 11 24  1  0  0  0  0
 12 13  2  0  0  0  0
 12 25  1  0  0  0  0
 13 14  1  0  0  0  0
 13 26  1  0  0  0  0
 14 15  2  0  0  0  0
 14 27  1  0  0  0  0
 16 17  1  0  0  0  0
 16 18  1  0  0  0  0
 16 28  1  0  0  0  0
 17 29  1  0  0  0  0
 17 30  1  0  0  0  0
 17 31  1  0  0  0  0
 18 32  1  0  0  0  0
 18 33  1  0  0  0  0
 18 34  1  0  0  0  0
M  END
$$$$
