Title Card Required
 OpenBabel03192317463D

 36 38  0  0  1  0  0  0  0  0999 V2000
    0.1002   -0.6316    0.9540 P   0  0  2  0  0  0  0  0  0  0  0  0
    0.8882    0.5514   -0.2318 C   0  0  2  0  0  0  0  0  0  0  0  0
    0.2032    0.2410   -1.5928 C   0  0  0  0  0  0  0  0  0  0  0  0
   -0.5592   -1.0930   -1.5014 C   0  0  0  0  0  0  0  0  0  0  0  0
   -1.2887   -1.1389   -0.1390 C   0  0  2  0  0  0  0  0  0  0  0  0
   -2.5618   -0.3251   -0.1169 C   0  0  0  0  0  0  0  0  0  0  0  0
   -2.5879    1.0597    0.0936 C   0  0  0  0  0  0  0  0  0  0  0  0
   -3.7882    1.7669    0.0396 C   0  0  0  0  0  0  0  0  0  0  0  0
   -4.9857    1.1044   -0.2220 C   0  0  0  0  0  0  0  0  0  0  0  0
   -4.9754   -0.2745   -0.4270 C   0  0  0  0  0  0  0  0  0  0  0  0
   -3.7745   -0.9780   -0.3744 C   0  0  0  0  0  0  0  0  0  0  0  0
    2.3947    0.4519   -0.2315 C   0  0  0  0  0  0  0  0  0  0  0  0
    3.0393   -0.7557   -0.5310 C   0  0  0  0  0  0  0  0  0  0  0  0
    4.4292   -0.8277   -0.5593 C   0  0  0  0  0  0  0  0  0  0  0  0
    5.1991    0.3022   -0.2817 C   0  0  0  0  0  0  0  0  0  0  0  0
    4.5684    1.5052    0.0263 C   0  0  0  0  0  0  0  0  0  0  0  0
    3.1759    1.5770    0.0498 C   0  0  0  0  0  0  0  0  0  0  0  0
   -0.4677    0.2940    2.1622 O   0  0  0  0  0  0  0  0  0  0  0  0
    0.9252   -1.7756    1.4229 O   0  0  0  0  0  0  0  0  0  0  0  0
    0.6107    1.5577    0.1135 H   0  0  0  0  0  0  0  0  0  0  0  0
   -0.5081    1.0447   -1.8319 H   0  0  0  0  0  0  0  0  0  0  0  0
    0.9489    0.2153   -2.3987 H   0  0  0  0  0  0  0  0  0  0  0  0
   -1.2692   -1.2131   -2.3317 H   0  0  0  0  0  0  0  0  0  0  0  0
    0.1511   -1.9342   -1.5454 H   0  0  0  0  0  0  0  0  0  0  0  0
   -1.5147   -2.1792    0.1344 H   0  0  0  0  0  0  0  0  0  0  0  0
   -1.6681    1.5978    0.3279 H   0  0  0  0  0  0  0  0  0  0  0  0
   -3.7855    2.8443    0.2116 H   0  0  0  0  0  0  0  0  0  0  0  0
   -5.9239    1.6598   -0.2596 H   0  0  0  0  0  0  0  0  0  0  0  0
   -5.9069   -0.8066   -0.6267 H   0  0  0  0  0  0  0  0  0  0  0  0
   -3.7726   -2.0586   -0.5362 H   0  0  0  0  0  0  0  0  0  0  0  0
    2.4476   -1.6546   -0.7118 H   0  0  0  0  0  0  0  0  0  0  0  0
    4.9155   -1.7772   -0.7879 H   0  0  0  0  0  0  0  0  0  0  0  0
    6.2883    0.2423   -0.3003 H   0  0  0  0  0  0  0  0  0  0  0  0
    5.1602    2.3945    0.2492 H   0  0  0  0  0  0  0  0  0  0  0  0
    2.6851    2.5237    0.2873 H   0  0  0  0  0  0  0  0  0  0  0  0
   -0.2806   -0.1297    3.0120 H   0  0  0  0  0  0  0  0  0  0  0  0
  1  2  1  0  0  0  0
  1  5  1  0  0  0  0
  1 18  1  0  0  0  0
  1 19  2  1  0  0  0
  2  3  1  0  0  0  0
  2 12  1  0  0  0  0
  2 20  1  1  0  0  0
  3  4  1  0  0  0  0
  3 21  1  0  0  0  0
  3 22  1  0  0  0  0
  4  5  1  0  0  0  0
  4 23  1  0  0  0  0
  4 24  1  0  0  0  0
  5  6  1  0  0  0  0
  5 25  1  1  0  0  0
  6  7  2  0  0  0  0
  6 11  1  0  0  0  0
  7  8  1  0  0  0  0
  7 26  1  0  0  0  0
  8  9  2  0  0  0  0
  8 27  1  0  0  0  0
  9 10  1  0  0  0  0
  9 28  1  0  0  0  0
 10 11  2  0  0  0  0
 10 29  1  0  0  0  0
 11 30  1  0  0  0  0
 12 13  2  0  0  0  0
 12 17  1  0  0  0  0
 13 14  1  0  0  0  0
 13 31  1  0  0  0  0
 14 15  2  0  0  0  0
 14 32  1  0  0  0  0
 15 16  1  0  0  0  0
 15 33  1  0  0  0  0
 16 17  2  0  0  0  0
 16 34  1  0  0  0  0
 17 35  1  0  0  0  0
 18 36  1  0  0  0  0
M  END
$$$$
