Title Card Required
 OpenBabel03192317483D

 37 39  0  0  1  0  0  0  0  0999 V2000
    1.0955   -1.5635   -0.3736 O   0  0  0  0  0  0  0  0  0  0  0  0
    0.7936   -0.2596   -0.4863 C   0  0  0  0  0  0  0  0  0  0  0  0
    1.7326    0.5649   -0.7149 N   0  0  0  0  0  0  0  0  0  0  0  0
    2.9761   -0.2026   -0.7492 C   0  0  2  0  0  0  0  0  0  0  0  0
    2.4965   -1.6731   -0.6313 C   0  0  0  0  0  0  0  0  0  0  0  0
   -1.5060   -0.8263   -0.1081 N   0  0  0  0  0  0  0  0  0  0  0  0
   -0.6332    0.1235   -0.3264 C   0  0  0  0  0  0  0  0  0  0  0  0
   -0.9643    1.5062   -0.4230 C   0  0  0  0  0  0  0  0  0  0  0  0
   -2.2750    1.8702   -0.2794 C   0  0  0  0  0  0  0  0  0  0  0  0
   -3.2556    0.8701   -0.0410 C   0  0  0  0  0  0  0  0  0  0  0  0
   -4.6361    1.1584    0.1192 C   0  0  0  0  0  0  0  0  0  0  0  0
   -5.5350    0.1446    0.3463 C   0  0  0  0  0  0  0  0  0  0  0  0
   -5.0946   -1.2013    0.4233 C   0  0  0  0  0  0  0  0  0  0  0  0
   -3.7649   -1.5095    0.2728 C   0  0  0  0  0  0  0  0  0  0  0  0
   -2.8115   -0.4812    0.0368 C   0  0  0  0  0  0  0  0  0  0  0  0
    3.9604    0.2662    0.3501 C   0  0  0  0  0  0  0  0  0  0  0  0
    3.3242    0.1221    1.7350 C   0  0  0  0  0  0  0  0  0  0  0  0
    5.2398   -0.5710    0.2629 C   0  0  0  0  0  0  0  0  0  0  0  0
    4.3001    1.7376    0.0955 C   0  0  0  0  0  0  0  0  0  0  0  0
    3.4720   -0.0311   -1.7194 H   0  0  0  0  0  0  0  0  0  0  0  0
    2.6369   -2.2423   -1.5611 H   0  0  0  0  0  0  0  0  0  0  0  0
    2.9612   -2.2276    0.1954 H   0  0  0  0  0  0  0  0  0  0  0  0
   -0.1664    2.2241   -0.6082 H   0  0  0  0  0  0  0  0  0  0  0  0
   -2.5808    2.9167   -0.3451 H   0  0  0  0  0  0  0  0  0  0  0  0
   -4.9688    2.1967    0.0586 H   0  0  0  0  0  0  0  0  0  0  0  0
   -6.5951    0.3713    0.4688 H   0  0  0  0  0  0  0  0  0  0  0  0
   -5.8222   -1.9943    0.6029 H   0  0  0  0  0  0  0  0  0  0  0  0
   -3.3938   -2.5333    0.3267 H   0  0  0  0  0  0  0  0  0  0  0  0
    3.0415   -0.9194    1.9543 H   0  0  0  0  0  0  0  0  0  0  0  0
    4.0313    0.4456    2.5134 H   0  0  0  0  0  0  0  0  0  0  0  0
    2.4217    0.7456    1.8116 H   0  0  0  0  0  0  0  0  0  0  0  0
    5.6953   -0.4917   -0.7367 H   0  0  0  0  0  0  0  0  0  0  0  0
    5.9774   -0.2149    0.9977 H   0  0  0  0  0  0  0  0  0  0  0  0
    5.0536   -1.6355    0.4719 H   0  0  0  0  0  0  0  0  0  0  0  0
    4.7812    1.8634   -0.8870 H   0  0  0  0  0  0  0  0  0  0  0  0
    3.3894    2.3508    0.1094 H   0  0  0  0  0  0  0  0  0  0  0  0
    4.9935    2.1113    0.8640 H   0  0  0  0  0  0  0  0  0  0  0  0
  1  2  1  0  0  0  0
  1  5  1  0  0  0  0
  2  3  2  0  0  0  0
  2  7  1  0  0  0  0
  3  4  1  0  0  0  0
  4  5  1  0  0  0  0
  4 16  1  0  0  0  0
  4 20  1  6  0  0  0
  5 21  1  0  0  0  0
  5 22  1  0  0  0  0
  6  7  2  0  0  0  0
  6 15  1  0  0  0  0
  7  8  1  0  0  0  0
  8  9  2  0  0  0  0
  8 23  1  0  0  0  0
  9 10  1  0  0  0  0
  9 24  1  0  0  0  0
 10 11  2  0  0  0  0
 10 15  1  0  0  0  0
 11 12  1  0  0  0  0
 11 25  1  0  0  0  0
 12 13  2  0  0  0  0
 12 26  1  0  0  0  0
 13 14  1  0  0  0  0
 13 27  1  0  0  0  0
 14 15  2  0  0  0  0
 14 28  1  0  0  0  0
 16 17  1  0  0  0  0
 16 18  1  0  0  0  0
 16 19  1  0  0  0  0
 17 29  1  0  0  0  0
 17 30  1  0  0  0  0
 17 31  1  0  0  0  0
 18 32  1  0  0  0  0
 18 33  1  0  0  0  0
 18 34  1  0  0  0  0
 19 35  1  0  0  0  0
 19 36  1  0  0  0  0
 19 37  1  0  0  0  0
M  END
$$$$
