Title Card Required
 OpenBabel03192317493D

 42 43  0  0  1  0  0  0  0  0999 V2000
    1.3542   -2.0500   -0.2131 O   0  0  0  0  0  0  0  0  0  0  0  0
    0.8373   -0.8053   -0.2544 C   0  0  0  0  0  0  0  0  0  0  0  0
    1.6167    0.1843   -0.3558 N   0  0  0  0  0  0  0  0  0  0  0  0
    2.9746   -0.3585   -0.4028 C   0  0  2  0  0  0  0  0  0  0  0  0
    2.7749   -1.8869   -0.2305 C   0  0  0  0  0  0  0  0  0  0  0  0
   -2.6494   -1.5222    0.3040 C   0  0  0  0  0  0  0  0  0  0  0  0
   -2.7356   -0.1017   -0.2998 C   0  0  2  0  0  0  0  0  0  0  0  0
   -1.3335    0.2987   -0.4455 N   0  0  0  0  0  0  0  0  0  0  0  0
   -0.6436   -0.7285   -0.1891 C   0  0  0  0  0  0  0  0  0  0  0  0
   -1.2704   -1.8720    0.1605 O   0  0  0  0  0  0  0  0  0  0  0  0
    3.8845    0.2700    0.6577 C   0  0  2  0  0  0  0  0  0  0  0  0
   -3.5405    0.8933    0.5394 C   0  0  2  0  0  0  0  0  0  0  0  0
    3.7898    1.8019    0.6587 C   0  0  0  0  0  0  0  0  0  0  0  0
   -4.9775    0.4021    0.7744 C   0  0  0  0  0  0  0  0  0  0  0  0
    4.0455    2.4585   -0.6951 C   0  0  0  0  0  0  0  0  0  0  0  0
   -5.8044    0.1791   -0.4895 C   0  0  0  0  0  0  0  0  0  0  0  0
    5.3177   -0.2290    0.4779 C   0  0  0  0  0  0  0  0  0  0  0  0
   -3.4894    2.2852   -0.0847 C   0  0  0  0  0  0  0  0  0  0  0  0
    3.3963   -0.1266   -1.3966 H   0  0  0  0  0  0  0  0  0  0  0  0
    3.1874   -2.4889   -1.0503 H   0  0  0  0  0  0  0  0  0  0  0  0
    3.1792   -2.2571    0.7252 H   0  0  0  0  0  0  0  0  0  0  0  0
   -2.8974   -1.5271    1.3784 H   0  0  0  0  0  0  0  0  0  0  0  0
   -3.2630   -2.2728   -0.2098 H   0  0  0  0  0  0  0  0  0  0  0  0
   -3.1695   -0.1283   -1.3157 H   0  0  0  0  0  0  0  0  0  0  0  0
    3.5161   -0.0819    1.6382 H   0  0  0  0  0  0  0  0  0  0  0  0
   -3.0422    0.9412    1.5242 H   0  0  0  0  0  0  0  0  0  0  0  0
    2.7842    2.0849    1.0010 H   0  0  0  0  0  0  0  0  0  0  0  0
    4.5049    2.1866    1.4045 H   0  0  0  0  0  0  0  0  0  0  0  0
   -4.9534   -0.5325    1.3598 H   0  0  0  0  0  0  0  0  0  0  0  0
   -5.4858    1.1398    1.4158 H   0  0  0  0  0  0  0  0  0  0  0  0
    3.2460    2.2060   -1.4064 H   0  0  0  0  0  0  0  0  0  0  0  0
    4.0627    3.5527   -0.5967 H   0  0  0  0  0  0  0  0  0  0  0  0
    5.0089    2.1524   -1.1307 H   0  0  0  0  0  0  0  0  0  0  0  0
   -5.3834   -0.6170   -1.1222 H   0  0  0  0  0  0  0  0  0  0  0  0
   -6.8308   -0.1182   -0.2336 H   0  0  0  0  0  0  0  0  0  0  0  0
   -5.8682    1.0911   -1.1001 H   0  0  0  0  0  0  0  0  0  0  0  0
    5.7265    0.0857   -0.4944 H   0  0  0  0  0  0  0  0  0  0  0  0
    5.9733    0.1700    1.2648 H   0  0  0  0  0  0  0  0  0  0  0  0
    5.3762   -1.3275    0.5217 H   0  0  0  0  0  0  0  0  0  0  0  0
   -3.9260    2.2830   -1.0953 H   0  0  0  0  0  0  0  0  0  0  0  0
   -4.0492    3.0082    0.5265 H   0  0  0  0  0  0  0  0  0  0  0  0
   -2.4493    2.6227   -0.1745 H   0  0  0  0  0  0  0  0  0  0  0  0
  1  2  1  0  0  0  0
  1  5  1  0  0  0  0
  2  3  2  0  0  0  0
  2  9  1  0  0  0  0
  3  4  1  0  0  0  0
  4  5  1  0  0  0  0
  4 11  1  0  0  0  0
  4 19  1  6  0  0  0
  5 20  1  0  0  0  0
  5 21  1  0  0  0  0
  6  7  1  0  0  0  0
  6 10  1  0  0  0  0
  6 22  1  0  0  0  0
  6 23  1  0  0  0  0
  7  8  1  0  0  0  0
  7 12  1  0  0  0  0
  7 24  1  6  0  0  0
  8  9  2  0  0  0  0
  9 10  1  0  0  0  0
 11 13  1  0  0  0  0
 11 17  1  0  0  0  0
 11 25  1  1  0  0  0
 12 14  1  0  0  0  0
 12 18  1  0  0  0  0
 12 26  1  1  0  0  0
 13 15  1  0  0  0  0
 13 27  1  0  0  0  0
 13 28  1  0  0  0  0
 14 16  1  0  0  0  0
 14 29  1  0  0  0  0
 14 30  1  0  0  0  0
 15 31  1  0  0  0  0
 15 32  1  0  0  0  0
 15 33  1  0  0  0  0
 16 34  1  0  0  0  0
 16 35  1  0  0  0  0
 16 36  1  0  0  0  0
 17 37  1  0  0  0  0
 17 38  1  0  0  0  0
 17 39  1  0  0  0  0
 18 40  1  0  0  0  0
 18 41  1  0  0  0  0
 18 42  1  0  0  0  0
M  END
$$$$
