Title Card Required
 OpenBabel03192317443D

 83 89  0  0  1  0  0  0  0  0999 V2000
   -0.2968   -0.1414    0.2455 C   0  0  0  0  0  0  0  0  0  0  0  0
    0.6653   -0.0700    1.3999 C   0  0  0  0  0  0  0  0  0  0  0  0
    2.0386    0.1790    1.1679 C   0  0  0  0  0  0  0  0  0  0  0  0
    2.8905    0.2368    2.2814 C   0  0  0  0  0  0  0  0  0  0  0  0
    2.4209    0.0373    3.5773 C   0  0  0  0  0  0  0  0  0  0  0  0
    1.0729   -0.2327    3.7949 C   0  0  0  0  0  0  0  0  0  0  0  0
    0.2093   -0.2853    2.7074 C   0  0  0  0  0  0  0  0  0  0  0  0
    0.0972   -0.2799   -0.9024 O   0  0  0  0  0  0  0  0  0  0  0  0
   -1.6210   -0.0344    0.5413 N   0  0  0  0  0  0  0  0  0  0  0  0
   -2.6618    0.0071   -0.4847 C   0  0  1  0  0  0  0  0  0  0  0  0
   -4.1206   -1.9016    0.4051 N   0  0  2  0  0  0  0  0  0  0  0  0
   -3.3758   -1.3344   -0.7302 C   0  0  2  0  0  0  0  0  0  0  0  0
   -2.4084   -2.3925   -1.3317 C   0  0  0  0  0  0  0  0  0  0  0  0
   -2.6558   -3.7344   -0.6332 C   0  0  1  0  0  0  0  0  0  0  0  0
   -2.3418   -3.6106    0.8668 C   0  0  2  0  0  0  0  0  0  0  0  0
   -3.2657   -2.4844    1.4367 C   0  0  0  0  0  0  0  0  0  0  0  0
   -4.1418   -4.0920   -0.7849 C   0  0  0  0  0  0  0  0  0  0  0  0
   -4.9814   -2.9671   -0.1118 C   0  0  0  0  0  0  0  0  0  0  0  0
   -0.8957   -3.3761    1.2183 C   0  0  0  0  0  0  0  0  0  0  0  0
    0.1640   -3.4406    0.4115 C   0  0  0  0  0  0  0  0  0  0  0  0
   -5.2056    3.4633    0.2264 N   0  0  0  0  0  0  0  0  0  0  0  0
   -5.6613    2.2454    0.3651 C   0  0  0  0  0  0  0  0  0  0  0  0
   -4.8830    1.0791    0.1528 C   0  0  0  0  0  0  0  0  0  0  0  0
   -3.5663    1.2014   -0.2304 C   0  0  0  0  0  0  0  0  0  0  0  0
   -3.0338    2.5217   -0.3899 C   0  0  0  0  0  0  0  0  0  0  0  0
   -1.6874    2.7748   -0.7763 C   0  0  0  0  0  0  0  0  0  0  0  0
   -1.2332    4.0726   -0.8946 C   0  0  0  0  0  0  0  0  0  0  0  0
   -2.1121    5.1693   -0.6607 C   0  0  0  0  0  0  0  0  0  0  0  0
   -3.4100    4.9438   -0.2999 C   0  0  0  0  0  0  0  0  0  0  0  0
   -3.9096    3.6171   -0.1454 C   0  0  0  0  0  0  0  0  0  0  0  0
    0.0307    4.4023   -1.2174 O   0  0  0  0  0  0  0  0  0  0  0  0
    0.9762    3.3611   -1.2777 C   0  0  0  0  0  0  0  0  0  0  0  0
    2.7046    0.4044   -0.5683 P   0  0  0  0  0  0  0  0  0  0  0  0
    4.4322    0.9623   -0.2141 C   0  0  0  0  0  0  0  0  0  0  0  0
    5.5836    0.2793   -0.6215 C   0  0  0  0  0  0  0  0  0  0  0  0
    6.8479    0.8484   -0.4474 C   0  0  0  0  0  0  0  0  0  0  0  0
    6.9817    2.1044    0.1374 C   0  0  0  0  0  0  0  0  0  0  0  0
    5.8400    2.8026    0.5363 C   0  0  0  0  0  0  0  0  0  0  0  0
    4.5806    2.2420    0.3483 C   0  0  0  0  0  0  0  0  0  0  0  0
    2.9394   -1.3806   -0.9876 C   0  0  0  0  0  0  0  0  0  0  0  0
    2.3735   -1.8647   -2.1706 C   0  0  0  0  0  0  0  0  0  0  0  0
    2.5089   -3.2092   -2.5202 C   0  0  0  0  0  0  0  0  0  0  0  0
    3.2078   -4.0814   -1.6875 C   0  0  0  0  0  0  0  0  0  0  0  0
    3.7722   -3.6077   -0.5017 C   0  0  0  0  0  0  0  0  0  0  0  0
    3.6326   -2.2663   -0.1523 C   0  0  0  0  0  0  0  0  0  0  0  0
   -2.0305   -4.5200   -1.0823 H   0  0  0  0  0  0  0  0  0  0  0  0
    3.9531    0.4334    2.1345 H   0  0  0  0  0  0  0  0  0  0  0  0
    3.1170    0.0810    4.4164 H   0  0  0  0  0  0  0  0  0  0  0  0
    0.6948   -0.4086    4.8025 H   0  0  0  0  0  0  0  0  0  0  0  0
   -0.8382   -0.5311    2.8893 H   0  0  0  0  0  0  0  0  0  0  0  0
   -1.8828    0.2942    1.4613 H   0  0  0  0  0  0  0  0  0  0  0  0
   -2.1244    0.1982   -1.4278 H   0  0  0  0  0  0  0  0  0  0  0  0
   -4.1463   -1.0945   -1.4805 H   0  0  0  0  0  0  0  0  0  0  0  0
   -2.5895   -2.4973   -2.4125 H   0  0  0  0  0  0  0  0  0  0  0  0
   -1.3652   -2.0758   -1.2149 H   0  0  0  0  0  0  0  0  0  0  0  0
   -2.6324   -4.5626    1.3459 H   0  0  0  0  0  0  0  0  0  0  0  0
   -3.9307   -2.8841    2.2162 H   0  0  0  0  0  0  0  0  0  0  0  0
   -2.6659   -1.6986    1.9081 H   0  0  0  0  0  0  0  0  0  0  0  0
   -4.3905   -4.1852   -1.8527 H   0  0  0  0  0  0  0  0  0  0  0  0
   -4.3454   -5.0684   -0.3199 H   0  0  0  0  0  0  0  0  0  0  0  0
   -5.5686   -3.3624    0.7299 H   0  0  0  0  0  0  0  0  0  0  0  0
   -5.6952   -2.5240   -0.8224 H   0  0  0  0  0  0  0  0  0  0  0  0
   -0.7202   -3.1322    2.2747 H   0  0  0  0  0  0  0  0  0  0  0  0
    1.1711   -3.2443    0.7874 H   0  0  0  0  0  0  0  0  0  0  0  0
    0.0798   -3.6758   -0.6526 H   0  0  0  0  0  0  0  0  0  0  0  0
   -6.7083    2.1403    0.6689 H   0  0  0  0  0  0  0  0  0  0  0  0
   -5.3158    0.0924    0.3163 H   0  0  0  0  0  0  0  0  0  0  0  0
   -1.0173    1.9448   -0.9902 H   0  0  0  0  0  0  0  0  0  0  0  0
   -1.7082    6.1758   -0.7748 H   0  0  0  0  0  0  0  0  0  0  0  0
   -4.1065    5.7613   -0.1121 H   0  0  0  0  0  0  0  0  0  0  0  0
    1.0081    2.8053   -0.3249 H   0  0  0  0  0  0  0  0  0  0  0  0
    0.7537    2.6411   -2.0814 H   0  0  0  0  0  0  0  0  0  0  0  0
    1.9525    3.8217   -1.4668 H   0  0  0  0  0  0  0  0  0  0  0  0
    5.5006   -0.7045   -1.0859 H   0  0  0  0  0  0  0  0  0  0  0  0
    7.7335    0.2994   -0.7723 H   0  0  0  0  0  0  0  0  0  0  0  0
    7.9705    2.5447    0.2753 H   0  0  0  0  0  0  0  0  0  0  0  0
    5.9320    3.7930    0.9853 H   0  0  0  0  0  0  0  0  0  0  0  0
    3.6922    2.8055    0.6500 H   0  0  0  0  0  0  0  0  0  0  0  0
    1.8060   -1.1834   -2.8071 H   0  0  0  0  0  0  0  0  0  0  0  0
    2.0622   -3.5771   -3.4456 H   0  0  0  0  0  0  0  0  0  0  0  0
    3.3116   -5.1331   -1.9595 H   0  0  0  0  0  0  0  0  0  0  0  0
    4.3159   -4.2876    0.1564 H   0  0  0  0  0  0  0  0  0  0  0  0
    4.0661   -1.9019    0.7830 H   0  0  0  0  0  0  0  0  0  0  0  0
  1  2  1  0  0  0  0
  1  8  2  0  0  0  0
  1  9  1  0  0  0  0
  2  3  2  0  0  0  0
  2  7  1  0  0  0  0
  3  4  1  0  0  0  0
  3 33  1  0  0  0  0
  4  5  2  0  0  0  0
  4 47  1  0  0  0  0
  5  6  1  0  0  0  0
  5 48  1  0  0  0  0
  6  7  2  0  0  0  0
  6 49  1  0  0  0  0
  7 50  1  0  0  0  0
  9 10  1  0  0  0  0
  9 51  1  0  0  0  0
 10 12  1  0  0  0  0
 10 24  1  0  0  0  0
 10 52  1  6  0  0  0
 11 12  1  0  0  0  0
 11 16  1  1  0  0  0
 11 18  1  0  0  0  0
 12 13  1  0  0  0  0
 12 53  1  6  0  0  0
 13 14  1  0  0  0  0
 13 54  1  0  0  0  0
 13 55  1  0  0  0  0
 14 15  1  0  0  0  0
 14 17  1  0  0  0  0
 14 46  1  6  0  0  0
 15 16  1  0  0  0  0
 15 19  1  0  0  0  0
 15 56  1  1  0  0  0
 16 57  1  0  0  0  0
 16 58  1  0  0  0  0
 17 18  1  0  0  0  0
 17 59  1  0  0  0  0
 17 60  1  0  0  0  0
 18 61  1  0  0  0  0
 18 62  1  0  0  0  0
 19 20  2  0  0  0  0
 19 63  1  0  0  0  0
 20 64  1  0  0  0  0
 20 65  1  0  0  0  0
 21 22  2  0  0  0  0
 21 30  1  0  0  0  0
 22 23  1  0  0  0  0
 22 66  1  0  0  0  0
 23 24  2  0  0  0  0
 23 67  1  0  0  0  0
 24 25  1  0  0  0  0
 25 26  2  0  0  0  0
 25 30  1  0  0  0  0
 26 27  1  0  0  0  0
 26 68  1  0  0  0  0
 27 28  2  0  0  0  0
 27 31  1  0  0  0  0
 28 29  1  0  0  0  0
 28 69  1  0  0  0  0
 29 30  2  0  0  0  0
 29 70  1  0  0  0  0
 31 32  1  0  0  0  0
 32 71  1  0  0  0  0
 32 72  1  0  0  0  0
 32 73  1  0  0  0  0
 33 34  1  0  0  0  0
 33 40  1  0  0  0  0
 34 35  2  0  0  0  0
 34 39  1  0  0  0  0
 35 36  1  0  0  0  0
 35 74  1  0  0  0  0
 36 37  2  0  0  0  0
 36 75  1  0  0  0  0
 37 38  1  0  0  0  0
 37 76  1  0  0  0  0
 38 39  2  0  0  0  0
 38 77  1  0  0  0  0
 39 78  1  0  0  0  0
 40 41  2  0  0  0  0
 40 45  1  0  0  0  0
 41 42  1  0  0  0  0
 41 79  1  0  0  0  0
 42 43  2  0  0  0  0
 42 80  1  0  0  0  0
 43 44  1  0  0  0  0
 43 81  1  0  0  0  0
 44 45  2  0  0  0  0
 44 82  1  0  0  0  0
 45 83  1  0  0  0  0
M  END
$$$$
