Title Card Required
 OpenBabel03192317473D

 86100  0  0  1  0  0  0  0  0999 V2000
   -1.1937   -0.6454   -0.7262 O   0  0  0  0  0  0  0  0  0  0  0  0
    0.0265   -1.2904    0.0982 P   0  0  2  0  0  0  0  0  0  0  0  0
    1.2727   -0.3459   -0.3559 O   0  0  0  0  0  0  0  0  0  0  0  0
    1.4145    0.7429    0.4981 C   0  0  0  0  0  0  0  0  0  0  0  0
    0.4128    1.6935    0.4915 C   0  0  0  0  0  0  0  0  0  0  0  0
   -0.6470    1.7476   -0.5699 C   0  0  0  0  0  0  0  0  0  0  0  0
   -1.4593    0.6863   -0.9523 C   0  0  0  0  0  0  0  0  0  0  0  0
    2.4540    0.6725    1.4705 C   0  0  0  0  0  0  0  0  0  0  0  0
    2.4399    1.6279    2.4635 C   0  0  0  0  0  0  0  0  0  0  0  0
    1.4117    2.5995    2.5555 C   0  0  0  0  0  0  0  0  0  0  0  0
    1.4028    3.5359    3.6268 C   0  0  0  0  0  0  0  0  0  0  0  0
    0.3789    4.4385    3.7624 C   0  0  0  0  0  0  0  0  0  0  0  0
   -0.6918    4.4274    2.8372 C   0  0  0  0  0  0  0  0  0  0  0  0
   -0.7014    3.5467    1.7822 C   0  0  0  0  0  0  0  0  0  0  0  0
    0.3655    2.6245    1.5899 C   0  0  0  0  0  0  0  0  0  0  0  0
   -2.6424    0.8734   -1.7483 C   0  0  0  0  0  0  0  0  0  0  0  0
   -2.8627    2.0998   -2.3179 C   0  0  0  0  0  0  0  0  0  0  0  0
   -1.9585    3.1765   -2.1269 C   0  0  0  0  0  0  0  0  0  0  0  0
   -2.1616    4.4183   -2.7853 C   0  0  0  0  0  0  0  0  0  0  0  0
   -1.2854    5.4599   -2.6073 C   0  0  0  0  0  0  0  0  0  0  0  0
   -0.1615    5.2878   -1.7676 C   0  0  0  0  0  0  0  0  0  0  0  0
    0.0484    4.1004   -1.1054 C   0  0  0  0  0  0  0  0  0  0  0  0
   -0.8540    3.0098   -1.2483 C   0  0  0  0  0  0  0  0  0  0  0  0
   -3.6309   -0.2247   -1.9199 C   0  0  2  0  0  3  0  0  0  0  0  0
   -4.1161   -0.5594   -3.1821 C   0  0  0  0  0  0  0  0  0  0  0  0
   -5.0362   -1.6238   -3.4022 C   0  0  0  0  0  0  0  0  0  0  0  0
   -5.6689   -2.1987   -2.3195 C   0  0  1  0  0  3  0  0  0  0  0  0
   -6.2571   -3.5142   -2.0761 C   0  0  0  0  0  0  0  0  0  0  0  0
   -6.2522   -3.7874   -0.7445 C   0  0  0  0  0  0  0  0  0  0  0  0
   -5.7161   -2.5948   -0.0159 C   0  0  1  0  0  0  0  0  0  0  0  0
   -5.3147    0.0432    4.4685 C   0  0  0  0  0  2  0  0  0  0  0  0
   -5.9570   -0.8808    3.6825 C   0  0  0  0  0  3  0  0  0  0  0  0
   -6.7315   -1.1072    2.5581 C   0  0  0  0  0  3  0  0  0  0  0  0
   -6.3813   -1.8755    1.3777 C   0  0  1  0  0  0  0  0  0  0  0  0
   -4.6283   -2.2903    1.0600 C   0  0  0  0  0  3  0  0  0  0  0  0
   -3.7741   -1.3159    0.5225 C   0  0  0  0  0  0  0  0  0  0  0  0
   -4.1875   -0.9350   -0.8008 C   0  0  0  0  0  0  0  0  0  0  0  0
   -5.3712   -1.6433   -1.0382 C   0  0  1  0  0  0  0  0  0  0  0  0
   -7.0219   -1.6678    0.2334 C   0  0  1  0  0  3  0  0  0  0  0  0
    3.4755   -0.4101    1.4942 C   0  0  2  0  0  3  0  0  0  0  0  0
    3.7131   -1.0308    2.7102 C   0  0  0  0  0  0  0  0  0  0  0  0
    4.6426   -2.1076    2.8910 C   0  0  0  0  0  0  0  0  0  0  0  0
    5.5500   -2.3751    1.9071 C   0  0  1  0  0  3  0  0  0  0  0  0
    6.2817   -3.5828    1.5373 C   0  0  0  0  0  0  0  0  0  0  0  0
    6.5652   -3.5776    0.2063 C   0  0  0  0  0  0  0  0  0  0  0  0
    6.0554   -2.3027   -0.3681 C   0  0  1  0  0  0  0  0  0  0  0  0
    6.5961    1.0465   -4.3101 C   0  0  0  0  0  2  0  0  0  0  0  0
    7.0879    0.1349   -3.4330 C   0  0  0  0  0  3  0  0  0  0  0  0
    7.4852   -0.2160   -2.1573 C   0  0  0  0  0  3  0  0  0  0  0  0
    6.8159   -1.1928   -1.3198 C   0  0  1  0  0  0  0  0  0  0  0  0
    5.2606   -1.7867   -1.5388 C   0  0  0  0  0  3  0  0  0  0  0  0
    4.1750   -0.9763   -1.0207 C   0  0  0  0  0  0  0  0  0  0  0  0
    4.2908   -0.8492    0.3636 C   0  0  0  0  0  0  0  0  0  0  0  0
    5.5146   -1.5197    0.7325 C   0  0  1  0  0  0  0  0  0  0  0  0
    7.0795   -1.1024    0.0247 C   0  0  1  0  0  3  0  0  0  0  0  0
    0.2905   -2.6021   -0.7564 O   0  0  0  0  0  0  0  0  0  0  0  0
   -0.1907   -1.4164    1.5412 O   0  0  0  0  0  0  0  0  0  0  0  0
    3.2321    1.6331    3.2154 H   0  0  0  0  0  0  0  0  0  0  0  0
    2.2215    3.5050    4.3483 H   0  0  0  0  0  0  0  0  0  0  0  0
    0.3733    5.1480    4.5909 H   0  0  0  0  0  0  0  0  0  0  0  0
   -1.5217    5.1235    2.9648 H   0  0  0  0  0  0  0  0  0  0  0  0
   -1.5466    3.5402    1.0951 H   0  0  0  0  0  0  0  0  0  0  0  0
   -3.7572    2.2590   -2.9241 H   0  0  0  0  0  0  0  0  0  0  0  0
   -3.0259    4.5201   -3.4447 H   0  0  0  0  0  0  0  0  0  0  0  0
   -1.4425    6.4095   -3.1205 H   0  0  0  0  0  0  0  0  0  0  0  0
    0.5510    6.1043   -1.6433 H   0  0  0  0  0  0  0  0  0  0  0  0
    0.9325    3.9864   -0.4798 H   0  0  0  0  0  0  0  0  0  0  0  0
   -3.6872   -0.0570   -4.0527 H   0  0  0  0  0  0  0  0  0  0  0  0
   -5.1513   -2.0294   -4.4099 H   0  0  0  0  0  0  0  0  0  0  0  0
   -6.6589   -4.1671   -2.8513 H   0  0  0  0  0  0  0  0  0  0  0  0
   -6.6492   -4.6688   -0.2432 H   0  0  0  0  0  0  0  0  0  0  0  0
   -4.9452   -0.4247    5.4045 H   0  0  0  0  0  0  0  0  0  0  0  0
   -5.4364   -1.8520    3.8923 H   0  0  0  0  0  0  0  0  0  0  0  0
   -7.7280   -0.6719    2.4224 H   0  0  0  0  0  0  0  0  0  0  0  0
   -4.4368   -2.8011    2.0067 H   0  0  0  0  0  0  0  0  0  0  0  0
   -2.8902   -0.9900    1.0725 H   0  0  0  0  0  0  0  0  0  0  0  0
    3.0709   -0.7667    3.5528 H   0  0  0  0  0  0  0  0  0  0  0  0
    4.5486   -2.7483    3.7699 H   0  0  0  0  0  0  0  0  0  0  0  0
    6.5640   -4.3665    2.2408 H   0  0  0  0  0  0  0  0  0  0  0  0
    7.1309   -4.3177   -0.3552 H   0  0  0  0  0  0  0  0  0  0  0  0
    6.6795    0.7350   -5.3683 H   0  0  0  0  0  0  0  0  0  0  0  0
    6.8223   -0.8354   -3.9409 H   0  0  0  0  0  0  0  0  0  0  0  0
    8.3179    0.2636   -1.6304 H   0  0  0  0  0  0  0  0  0  0  0  0
    5.2982   -2.1327   -2.5763 H   0  0  0  0  0  0  0  0  0  0  0  0
    3.3983   -0.5897   -1.6753 H   0  0  0  0  0  0  0  0  0  0  0  0
    1.2275   -2.8448   -0.7804 H   0  0  0  0  0  0  0  0  0  0  0  0
  1  2  1  0  0  0  0
  1  7  1  0  0  0  0
  2  3  1  0  0  0  0
  2 56  1  0  0  0  0
  2 57  2  0  0  0  0
  3  4  1  0  0  0  0
  4  5  2  0  0  0  0
  4  8  1  0  0  0  0
  5  6  1  0  0  0  0
  5 15  1  0  0  0  0
  6  7  2  0  0  0  0
  6 23  1  0  0  0  0
  7 16  1  0  0  0  0
  8  9  2  0  0  0  0
  8 40  1  0  0  0  0
  9 10  1  0  0  0  0
  9 58  1  0  0  0  0
 10 11  2  0  0  0  0
 10 15  1  0  0  0  0
 11 12  1  0  0  0  0
 11 59  1  0  0  0  0
 12 13  2  0  0  0  0
 12 60  1  0  0  0  0
 13 14  1  0  0  0  0
 13 61  1  0  0  0  0
 14 15  2  0  0  0  0
 14 62  1  0  0  0  0
 16 17  2  0  0  0  0
 17 18  1  0  0  0  0
 17 63  1  0  0  0  0
 18 19  2  0  0  0  0
 18 23  1  0  0  0  0
 19 20  1  0  0  0  0
 19 64  1  0  0  0  0
 20 21  2  0  0  0  0
 20 65  1  0  0  0  0
 21 22  1  0  0  0  0
 21 66  1  0  0  0  0
 22 23  2  0  0  0  0
 22 67  1  0  0  0  0
 24 16  1  1  0  0  0
 24 25  1  0  0  0  0
 24 37  1  0  0  0  0
 25 26  2  0  0  0  0
 25 68  1  0  0  0  0
 26 69  1  0  0  0  0
 27 26  1  6  0  0  0
 27 28  1  0  0  0  0
 27 38  1  0  0  0  0
 28 29  2  0  0  0  0
 28 70  1  0  0  0  0
 29 71  1  0  0  0  0
 30 29  1  6  0  0  0
 30 34  1  0  0  0  0
 30 38  1  0  0  0  0
 30 39  1  0  0  0  0
 31 32  1  0  0  0  0
 31 72  1  0  0  0  0
 32 33  1  0  0  0  0
 32 73  1  0  0  0  0
 33 74  1  0  0  0  0
 34 33  1  1  0  0  0
 34 35  1  0  0  0  0
 34 39  1  0  0  0  0
 35 36  1  0  0  0  0
 35 75  1  0  0  0  0
 36 37  2  0  0  0  0
 36 76  1  0  0  0  0
 38 37  1  1  0  0  0
 38 39  1  0  0  0  0
 40 41  1  0  0  0  0
 40 53  1  0  0  0  0
 41 42  2  0  0  0  0
 41 77  1  0  0  0  0
 42 43  1  0  0  0  0
 42 78  1  0  0  0  0
 43 44  1  0  0  0  0
 43 54  1  0  0  0  0
 44 45  2  0  0  0  0
 44 79  1  0  0  0  0
 45 46  1  0  0  0  0
 45 80  1  0  0  0  0
 46 50  1  0  0  0  0
 46 54  1  0  0  0  0
 46 55  1  0  0  0  0
 47 48  1  0  0  0  0
 47 81  1  0  0  0  0
 48 49  1  0  0  0  0
 48 82  1  0  0  0  0
 49 50  1  0  0  0  0
 49 83  1  0  0  0  0
 50 51  1  0  0  0  0
 50 55  1  0  0  0  0
 51 52  1  0  0  0  0
 51 84  1  0  0  0  0
 52 53  2  0  0  0  0
 52 85  1  0  0  0  0
 53 54  1  0  0  0  0
 54 55  1  0  0  0  0
 56 86  1  0  0  0  0
M  END
$$$$
