Title Card Required
 OpenBabel03192317443D

 65 71  0  0  1  0  0  0  0  0999 V2000
   -0.0117   -1.8100    0.2139 C   0  0  0  0  0  0  0  0  0  0  0  0
   -0.2541   -3.1844   -0.3665 C   0  0  0  0  0  0  0  0  0  0  0  0
    0.3460   -3.0606    0.9869 C   0  0  0  0  0  0  0  0  0  0  0  0
    1.4246    0.1047    0.3275 O   0  0  0  0  0  0  0  0  0  0  0  0
    1.0980   -1.0134   -0.3602 C   0  0  0  0  0  0  0  0  0  0  0  0
    1.7827   -1.3082   -1.3858 N   0  0  0  0  0  0  0  0  0  0  0  0
    2.8307   -0.2960   -1.4930 C   0  0  1  0  0  0  0  0  0  0  0  0
    2.3185    0.8305   -0.5184 C   0  0  2  0  0  0  0  0  0  0  0  0
   -1.4168    0.1227    0.0208 O   0  0  0  0  0  0  0  0  0  0  0  0
   -1.1878   -1.0376    0.6779 C   0  0  0  0  0  0  0  0  0  0  0  0
   -2.0099   -1.3898    1.5772 N   0  0  0  0  0  0  0  0  0  0  0  0
   -3.0746   -0.3885    1.5795 C   0  0  1  0  0  0  0  0  0  0  0  0
   -2.4228    0.7992    0.7803 C   0  0  2  0  0  0  0  0  0  0  0  0
    4.2021   -0.8384   -1.1420 C   0  0  0  0  0  0  0  0  0  0  0  0
    5.3396   -0.1182   -1.5248 C   0  0  0  0  0  0  0  0  0  0  0  0
    6.6080   -0.5270   -1.1248 C   0  0  0  0  0  0  0  0  0  0  0  0
    6.7584   -1.6755   -0.3463 C   0  0  0  0  0  0  0  0  0  0  0  0
    5.6338   -2.4120    0.0179 C   0  0  0  0  0  0  0  0  0  0  0  0
    4.3620   -1.9953   -0.3785 C   0  0  0  0  0  0  0  0  0  0  0  0
   -4.3597   -0.9044    0.9617 C   0  0  0  0  0  0  0  0  0  0  0  0
   -5.5599   -0.2329    1.2197 C   0  0  0  0  0  0  0  0  0  0  0  0
   -6.7378   -0.6117    0.5828 C   0  0  0  0  0  0  0  0  0  0  0  0
   -6.7332   -1.6792   -0.3163 C   0  0  0  0  0  0  0  0  0  0  0  0
   -5.5466   -2.3648   -0.5647 C   0  0  0  0  0  0  0  0  0  0  0  0
   -4.3660   -1.9787    0.0712 C   0  0  0  0  0  0  0  0  0  0  0  0
   -3.3327    1.6128   -0.0907 C   0  0  0  0  0  0  0  0  0  0  0  0
   -3.7026    1.1666   -1.3627 C   0  0  0  0  0  0  0  0  0  0  0  0
   -4.6328    1.8830   -2.1106 C   0  0  0  0  0  0  0  0  0  0  0  0
   -5.2009    3.0498   -1.5961 C   0  0  0  0  0  0  0  0  0  0  0  0
   -4.8250    3.5050   -0.3341 C   0  0  0  0  0  0  0  0  0  0  0  0
   -3.8900    2.7894    0.4131 C   0  0  0  0  0  0  0  0  0  0  0  0
    3.3630    1.5665    0.2663 C   0  0  0  0  0  0  0  0  0  0  0  0
    3.9057    1.0179    1.4317 C   0  0  0  0  0  0  0  0  0  0  0  0
    4.9611    1.6549    2.0784 C   0  0  0  0  0  0  0  0  0  0  0  0
    5.4834    2.8445    1.5679 C   0  0  0  0  0  0  0  0  0  0  0  0
    4.9347    3.4033    0.4154 C   0  0  0  0  0  0  0  0  0  0  0  0
    3.8740    2.7674   -0.2292 C   0  0  0  0  0  0  0  0  0  0  0  0
   -1.2957   -3.4993   -0.4327 H   0  0  0  0  0  0  0  0  0  0  0  0
    0.3910   -3.4456   -1.2062 H   0  0  0  0  0  0  0  0  0  0  0  0
    1.4106   -3.2667    1.1047 H   0  0  0  0  0  0  0  0  0  0  0  0
   -0.2886   -3.2558    1.8523 H   0  0  0  0  0  0  0  0  0  0  0  0
    2.8653    0.0991   -2.5183 H   0  0  0  0  0  0  0  0  0  0  0  0
    1.7107    1.5447   -1.0983 H   0  0  0  0  0  0  0  0  0  0  0  0
   -3.2871   -0.0637    2.6080 H   0  0  0  0  0  0  0  0  0  0  0  0
   -1.9025    1.4574    1.4961 H   0  0  0  0  0  0  0  0  0  0  0  0
    5.2278    0.7865   -2.1276 H   0  0  0  0  0  0  0  0  0  0  0  0
    7.4837    0.0527   -1.4211 H   0  0  0  0  0  0  0  0  0  0  0  0
    7.7518   -1.9983   -0.0309 H   0  0  0  0  0  0  0  0  0  0  0  0
    5.7439   -3.3195    0.6140 H   0  0  0  0  0  0  0  0  0  0  0  0
    3.4819   -2.5774   -0.1023 H   0  0  0  0  0  0  0  0  0  0  0  0
   -5.5654    0.6112    1.9138 H   0  0  0  0  0  0  0  0  0  0  0  0
   -7.6636   -0.0720    0.7879 H   0  0  0  0  0  0  0  0  0  0  0  0
   -7.6552   -1.9783   -0.8173 H   0  0  0  0  0  0  0  0  0  0  0  0
   -5.5370   -3.2080   -1.2573 H   0  0  0  0  0  0  0  0  0  0  0  0
   -3.4382   -2.5181   -0.1213 H   0  0  0  0  0  0  0  0  0  0  0  0
   -3.2586    0.2512   -1.7568 H   0  0  0  0  0  0  0  0  0  0  0  0
   -4.9208    1.5272   -3.1010 H   0  0  0  0  0  0  0  0  0  0  0  0
   -5.9318    3.6077   -2.1834 H   0  0  0  0  0  0  0  0  0  0  0  0
   -5.2555    4.4230    0.0690 H   0  0  0  0  0  0  0  0  0  0  0  0
   -3.5906    3.1478    1.4014 H   0  0  0  0  0  0  0  0  0  0  0  0
    3.4975    0.0837    1.8205 H   0  0  0  0  0  0  0  0  0  0  0  0
    5.3834    1.2180    2.9846 H   0  0  0  0  0  0  0  0  0  0  0  0
    6.3135    3.3396    2.0741 H   0  0  0  0  0  0  0  0  0  0  0  0
    5.3295    4.3399    0.0186 H   0  0  0  0  0  0  0  0  0  0  0  0
    3.4419    3.2062   -1.1323 H   0  0  0  0  0  0  0  0  0  0  0  0
  1  2  1  0  0  0  0
  1  3  1  0  0  0  0
  1  5  1  0  0  0  0
  1 10  1  0  0  0  0
  2  3  1  0  0  0  0
  2 38  1  0  0  0  0
  2 39  1  0  0  0  0
  3 40  1  0  0  0  0
  3 41  1  0  0  0  0
  4  5  1  0  0  0  0
  4  8  1  0  0  0  0
  5  6  2  0  0  0  0
  6  7  1  0  0  0  0
  7  8  1  0  0  0  0
  7 14  1  0  0  0  0
  7 42  1  6  0  0  0
  8 32  1  0  0  0  0
  8 43  1  6  0  0  0
  9 10  1  0  0  0  0
  9 13  1  0  0  0  0
 10 11  2  0  0  0  0
 11 12  1  0  0  0  0
 12 13  1  0  0  0  0
 12 20  1  0  0  0  0
 12 44  1  1  0  0  0
 13 26  1  0  0  0  0
 13 45  1  1  0  0  0
 14 15  2  0  0  0  0
 14 19  1  0  0  0  0
 15 16  1  0  0  0  0
 15 46  1  0  0  0  0
 16 17  2  0  0  0  0
 16 47  1  0  0  0  0
 17 18  1  0  0  0  0
 17 48  1  0  0  0  0
 18 19  2  0  0  0  0
 18 49  1  0  0  0  0
 19 50  1  0  0  0  0
 20 21  2  0  0  0  0
 20 25  1  0  0  0  0
 21 22  1  0  0  0  0
 21 51  1  0  0  0  0
 22 23  2  0  0  0  0
 22 52  1  0  0  0  0
 23 24  1  0  0  0  0
 23 53  1  0  0  0  0
 24 25  2  0  0  0  0
 24 54  1  0  0  0  0
 25 55  1  0  0  0  0
 26 27  2  0  0  0  0
 26 31  1  0  0  0  0
 27 28  1  0  0  0  0
 27 56  1  0  0  0  0
 28 29  2  0  0  0  0
 28 57  1  0  0  0  0
 29 30  1  0  0  0  0
 29 58  1  0  0  0  0
 30 31  2  0  0  0  0
 30 59  1  0  0  0  0
 31 60  1  0  0  0  0
 32 33  2  0  0  0  0
 32 37  1  0  0  0  0
 33 34  1  0  0  0  0
 33 61  1  0  0  0  0
 34 35  2  0  0  0  0
 34 62  1  0  0  0  0
 35 36  1  0  0  0  0
 35 63  1  0  0  0  0
 36 37  2  0  0  0  0
 36 64  1  0  0  0  0
 37 65  1  0  0  0  0
M  END
$$$$
