Title Card Required
 OpenBabel03192317523D

 46 49  0  0  0  0  0  0  0  0999 V2000
   -2.9786    0.5566   -0.1165 C   0  0  0  0  0  0  0  0  0  0  0  0
   -1.7478   -0.1186   -0.1522 C   0  0  0  0  0  0  0  0  0  0  0  0
   -0.6562    0.3585    0.5997 C   0  0  0  0  0  0  0  0  0  0  0  0
   -0.7916    1.5054    1.4081 C   0  0  0  0  0  0  0  0  0  0  0  0
   -2.0315    2.1623    1.4498 C   0  0  0  0  0  0  0  0  0  0  0  0
   -3.0943    1.6895    0.6968 C   0  0  0  0  0  0  0  0  0  0  0  0
    0.6562   -0.3587    0.5996 C   0  0  0  0  0  0  0  0  0  0  0  0
    1.7478    0.1186   -0.1522 C   0  0  0  0  0  0  0  0  0  0  0  0
    2.9787   -0.5565   -0.1166 C   0  0  0  0  0  0  0  0  0  0  0  0
    3.0944   -1.6896    0.6964 C   0  0  0  0  0  0  0  0  0  0  0  0
    2.0316   -2.1626    1.4492 C   0  0  0  0  0  0  0  0  0  0  0  0
    0.7916   -1.5058    1.4077 C   0  0  0  0  0  0  0  0  0  0  0  0
   -4.1713    0.0857   -0.9230 C   0  0  0  0  0  0  0  0  0  0  0  0
   -3.7693   -0.8196   -2.0818 C   0  0  0  0  0  0  0  0  0  0  0  0
   -2.8554   -1.9256   -1.5661 C   0  0  0  0  0  0  0  0  0  0  0  0
   -1.5520   -1.3463   -1.0214 C   0  0  0  0  0  0  0  0  0  0  0  0
    1.5519    1.3466   -1.0211 C   0  0  0  0  0  0  0  0  0  0  0  0
    2.8553    1.9260   -1.5657 C   0  0  0  0  0  0  0  0  0  0  0  0
    3.7692    0.8201   -2.0817 C   0  0  0  0  0  0  0  0  0  0  0  0
    4.1713   -0.0854   -0.9231 C   0  0  0  0  0  0  0  0  0  0  0  0
    0.2988    2.0087    2.0991 N   0  0  0  0  0  0  0  0  0  0  0  0
   -0.2988   -2.0093    2.0985 N   0  0  0  0  0  0  0  0  0  0  0  0
   -2.1454    3.0558    2.0672 H   0  0  0  0  0  0  0  0  0  0  0  0
   -4.0499    2.2193    0.7328 H   0  0  0  0  0  0  0  0  0  0  0  0
    4.0500   -2.2194    0.7323 H   0  0  0  0  0  0  0  0  0  0  0  0
    2.1456   -3.0563    2.0664 H   0  0  0  0  0  0  0  0  0  0  0  0
   -4.7326    0.9608   -1.2852 H   0  0  0  0  0  0  0  0  0  0  0  0
   -4.8626   -0.4693   -0.2635 H   0  0  0  0  0  0  0  0  0  0  0  0
   -3.2347   -0.2307   -2.8467 H   0  0  0  0  0  0  0  0  0  0  0  0
   -4.6641   -1.2399   -2.5644 H   0  0  0  0  0  0  0  0  0  0  0  0
   -3.3787   -2.4719   -0.7625 H   0  0  0  0  0  0  0  0  0  0  0  0
   -2.6342   -2.6598   -2.3545 H   0  0  0  0  0  0  0  0  0  0  0  0
   -1.0085   -2.1110   -0.4480 H   0  0  0  0  0  0  0  0  0  0  0  0
   -0.8869   -1.0705   -1.8592 H   0  0  0  0  0  0  0  0  0  0  0  0
    1.0085    2.1111   -0.4474 H   0  0  0  0  0  0  0  0  0  0  0  0
    0.8868    1.0709   -1.8589 H   0  0  0  0  0  0  0  0  0  0  0  0
    3.3786    2.4722   -0.7620 H   0  0  0  0  0  0  0  0  0  0  0  0
    2.6341    2.6603   -2.3540 H   0  0  0  0  0  0  0  0  0  0  0  0
    3.2346    0.2314   -2.8466 H   0  0  0  0  0  0  0  0  0  0  0  0
    4.6639    1.2406   -2.5642 H   0  0  0  0  0  0  0  0  0  0  0  0
    4.7326   -0.9604   -1.2855 H   0  0  0  0  0  0  0  0  0  0  0  0
    4.8626    0.4695   -0.2635 H   0  0  0  0  0  0  0  0  0  0  0  0
    0.0943    2.6113    2.8848 H   0  0  0  0  0  0  0  0  0  0  0  0
    1.0647    1.3624    2.2512 H   0  0  0  0  0  0  0  0  0  0  0  0
   -1.0647   -1.3631    2.2508 H   0  0  0  0  0  0  0  0  0  0  0  0
   -0.0943   -2.6122    2.8841 H   0  0  0  0  0  0  0  0  0  0  0  0
  1  2  2  0  0  0  0
  1  6  1  0  0  0  0
  1 13  1  0  0  0  0
  2  3  1  0  0  0  0
  2 16  1  0  0  0  0
  3  4  2  0  0  0  0
  3  7  1  0  0  0  0
  4  5  1  0  0  0  0
  4 21  1  0  0  0  0
  5  6  2  0  0  0  0
  5 23  1  0  0  0  0
  6 24  1  0  0  0  0
  7  8  2  0  0  0  0
  7 12  1  0  0  0  0
  8  9  1  0  0  0  0
  8 17  1  0  0  0  0
  9 10  2  0  0  0  0
  9 20  1  0  0  0  0
 10 11  1  0  0  0  0
 10 25  1  0  0  0  0
 11 12  2  0  0  0  0
 11 26  1  0  0  0  0
 12 22  1  0  0  0  0
 13 14  1  0  0  0  0
 13 27  1  0  0  0  0
 13 28  1  0  0  0  0
 14 15  1  0  0  0  0
 14 29  1  0  0  0  0
 14 30  1  0  0  0  0
 15 16  1  0  0  0  0
 15 31  1  0  0  0  0
 15 32  1  0  0  0  0
 16 33  1  0  0  0  0
 16 34  1  0  0  0  0
 17 18  1  0  0  0  0
 17 35  1  0  0  0  0
 17 36  1  0  0  0  0
 18 19  1  0  0  0  0
 18 37  1  0  0  0  0
 18 38  1  0  0  0  0
 19 20  1  0  0  0  0
 19 39  1  0  0  0  0
 19 40  1  0  0  0  0
 20 41  1  0  0  0  0
 20 42  1  0  0  0  0
 21 43  1  0  0  0  0
 21 44  1  0  0  0  0
 22 45  1  0  0  0  0
 22 46  1  0  0  0  0
M  END
$$$$
