Title Card Required
 OpenBabel03192317463D

 74 79  0  0  1  0  0  0  0  0999 V2000
    0.4432    1.7556   -0.6232 C   0  0  2  0  0  0  0  0  0  0  0  0
    0.0375    0.6926   -1.4900 O   0  0  0  0  0  0  0  0  0  0  0  0
    0.7753   -0.4300   -1.3016 C   0  0  0  0  0  0  0  0  0  0  0  0
    1.9757   -0.2891   -0.5939 C   0  0  0  0  0  0  0  0  0  0  0  0
    2.2543    1.4759   -0.1527 P   0  0  1  0  0  0  0  0  0  0  0  0
    2.7599   -1.4217   -0.3344 C   0  0  0  0  0  0  0  0  0  0  0  0
    2.3281   -2.6636   -0.8268 C   0  0  0  0  0  0  0  0  0  0  0  0
    1.1361   -2.7745   -1.5421 C   0  0  0  0  0  0  0  0  0  0  0  0
    0.3383   -1.6586   -1.7868 C   0  0  0  0  0  0  0  0  0  0  0  0
    4.0182   -1.3340    0.4561 C   0  0  0  0  0  0  0  0  0  0  0  0
    4.0479   -0.6440    1.6761 C   0  0  0  0  0  0  0  0  0  0  0  0
    5.2274   -0.5608    2.4128 C   0  0  0  0  0  0  0  0  0  0  0  0
    6.3935   -1.1646    1.9425 C   0  0  0  0  0  0  0  0  0  0  0  0
    6.3716   -1.8610    0.7349 C   0  0  0  0  0  0  0  0  0  0  0  0
    5.1911   -1.9486   -0.0007 C   0  0  0  0  0  0  0  0  0  0  0  0
   -0.4433    1.7557    0.6229 C   0  0  1  0  0  0  0  0  0  0  0  0
   -2.2544    1.4760    0.1524 P   0  0  1  0  0  0  0  0  0  0  0  0
   -1.9758   -0.2889    0.5939 C   0  0  0  0  0  0  0  0  0  0  0  0
   -0.7754   -0.4297    1.3017 C   0  0  0  0  0  0  0  0  0  0  0  0
   -0.0377    0.6930    1.4899 O   0  0  0  0  0  0  0  0  0  0  0  0
   -0.3384   -1.6583    1.7871 C   0  0  0  0  0  0  0  0  0  0  0  0
   -1.1362   -2.7741    1.5426 C   0  0  0  0  0  0  0  0  0  0  0  0
   -2.3282   -2.6635    0.8272 C   0  0  0  0  0  0  0  0  0  0  0  0
   -2.7600   -1.4216    0.3346 C   0  0  0  0  0  0  0  0  0  0  0  0
   -4.0182   -1.3340   -0.4560 C   0  0  0  0  0  0  0  0  0  0  0  0
   -4.0480   -0.6441   -1.6760 C   0  0  0  0  0  0  0  0  0  0  0  0
   -5.2274   -0.5611   -2.4128 C   0  0  0  0  0  0  0  0  0  0  0  0
   -6.3934   -1.1649   -1.9425 C   0  0  0  0  0  0  0  0  0  0  0  0
   -6.3716   -1.8613   -0.7348 C   0  0  0  0  0  0  0  0  0  0  0  0
   -5.1911   -1.9487    0.0008 C   0  0  0  0  0  0  0  0  0  0  0  0
    3.1518    2.1001   -1.7025 C   0  0  0  0  0  0  0  0  0  0  0  0
    3.2395    3.6235   -1.5576 C   0  0  0  0  0  0  0  0  0  0  0  0
    4.5594    1.4944   -1.6477 C   0  0  0  0  0  0  0  0  0  0  0  0
    2.4887    1.7351   -3.0298 C   0  0  0  0  0  0  0  0  0  0  0  0
   -3.1517    2.1005    1.7022 C   0  0  0  0  0  0  0  0  0  0  0  0
   -3.2394    3.6238    1.5571 C   0  0  0  0  0  0  0  0  0  0  0  0
   -4.5593    1.4948    1.6478 C   0  0  0  0  0  0  0  0  0  0  0  0
   -2.4884    1.7356    3.0295 C   0  0  0  0  0  0  0  0  0  0  0  0
    0.3061    2.7004   -1.1704 H   0  0  0  0  0  0  0  0  0  0  0  0
    2.9224   -3.5534   -0.6128 H   0  0  0  0  0  0  0  0  0  0  0  0
    0.8092   -3.7534   -1.8964 H   0  0  0  0  0  0  0  0  0  0  0  0
   -0.6128   -1.7275   -2.3151 H   0  0  0  0  0  0  0  0  0  0  0  0
    3.1344   -0.1759    2.0479 H   0  0  0  0  0  0  0  0  0  0  0  0
    5.2337   -0.0231    3.3622 H   0  0  0  0  0  0  0  0  0  0  0  0
    7.3178   -1.0956    2.5183 H   0  0  0  0  0  0  0  0  0  0  0  0
    7.2803   -2.3346    0.3597 H   0  0  0  0  0  0  0  0  0  0  0  0
    5.1779   -2.4817   -0.9539 H   0  0  0  0  0  0  0  0  0  0  0  0
   -0.3062    2.7007    1.1699 H   0  0  0  0  0  0  0  0  0  0  0  0
    0.6127   -1.7270    2.3155 H   0  0  0  0  0  0  0  0  0  0  0  0
   -0.8092   -3.7530    1.8970 H   0  0  0  0  0  0  0  0  0  0  0  0
   -2.9224   -3.5532    0.6134 H   0  0  0  0  0  0  0  0  0  0  0  0
   -3.1344   -0.1759   -2.0478 H   0  0  0  0  0  0  0  0  0  0  0  0
   -5.2337   -0.0234   -3.3622 H   0  0  0  0  0  0  0  0  0  0  0  0
   -7.3177   -1.0961   -2.5183 H   0  0  0  0  0  0  0  0  0  0  0  0
   -7.2802   -2.3350   -0.3597 H   0  0  0  0  0  0  0  0  0  0  0  0
   -5.1779   -2.4818    0.9540 H   0  0  0  0  0  0  0  0  0  0  0  0
    3.7436    3.9093   -0.6221 H   0  0  0  0  0  0  0  0  0  0  0  0
    3.8123    4.0467   -2.3986 H   0  0  0  0  0  0  0  0  0  0  0  0
    2.2433    4.0940   -1.5677 H   0  0  0  0  0  0  0  0  0  0  0  0
    4.5294    0.4053   -1.8024 H   0  0  0  0  0  0  0  0  0  0  0  0
    5.1827    1.9326   -2.4443 H   0  0  0  0  0  0  0  0  0  0  0  0
    5.0530    1.6858   -0.6816 H   0  0  0  0  0  0  0  0  0  0  0  0
    2.3975    0.6453   -3.1495 H   0  0  0  0  0  0  0  0  0  0  0  0
    1.4852    2.1740   -3.1299 H   0  0  0  0  0  0  0  0  0  0  0  0
    3.1062    2.1135   -3.8615 H   0  0  0  0  0  0  0  0  0  0  0  0
   -3.7435    3.9095    0.6217 H   0  0  0  0  0  0  0  0  0  0  0  0
   -3.8120    4.0472    2.3981 H   0  0  0  0  0  0  0  0  0  0  0  0
   -2.2431    4.0943    1.5670 H   0  0  0  0  0  0  0  0  0  0  0  0
   -4.5294    0.4057    1.8028 H   0  0  0  0  0  0  0  0  0  0  0  0
   -5.1825    1.9333    2.4443 H   0  0  0  0  0  0  0  0  0  0  0  0
   -5.0530    1.6859    0.6816 H   0  0  0  0  0  0  0  0  0  0  0  0
   -2.3971    0.6459    3.1493 H   0  0  0  0  0  0  0  0  0  0  0  0
   -1.4849    2.1745    3.1294 H   0  0  0  0  0  0  0  0  0  0  0  0
   -3.1058    2.1142    3.8612 H   0  0  0  0  0  0  0  0  0  0  0  0
  1  2  1  0  0  0  0
  1  5  1  0  0  0  0
  1 16  1  0  0  0  0
  1 39  1  6  0  0  0
  2  3  1  0  0  0  0
  3  4  2  0  0  0  0
  3  9  1  0  0  0  0
  4  5  1  0  0  0  0
  4  6  1  0  0  0  0
  5 31  1  6  0  0  0
  6  7  2  0  0  0  0
  6 10  1  0  0  0  0
  7  8  1  0  0  0  0
  7 40  1  0  0  0  0
  8  9  2  0  0  0  0
  8 41  1  0  0  0  0
  9 42  1  0  0  0  0
 10 11  2  0  0  0  0
 10 15  1  0  0  0  0
 11 12  1  0  0  0  0
 11 43  1  0  0  0  0
 12 13  2  0  0  0  0
 12 44  1  0  0  0  0
 13 14  1  0  0  0  0
 13 45  1  0  0  0  0
 14 15  2  0  0  0  0
 14 46  1  0  0  0  0
 15 47  1  0  0  0  0
 16 17  1  0  0  0  0
 16 20  1  0  0  0  0
 16 48  1  1  0  0  0
 17 18  1  0  0  0  0
 17 35  1  1  0  0  0
 18 19  2  0  0  0  0
 18 24  1  0  0  0  0
 19 20  1  0  0  0  0
 19 21  1  0  0  0  0
 21 22  2  0  0  0  0
 21 49  1  0  0  0  0
 22 23  1  0  0  0  0
 22 50  1  0  0  0  0
 23 24  2  0  0  0  0
 23 51  1  0  0  0  0
 24 25  1  0  0  0  0
 25 26  2  0  0  0  0
 25 30  1  0  0  0  0
 26 27  1  0  0  0  0
 26 52  1  0  0  0  0
 27 28  2  0  0  0  0
 27 53  1  0  0  0  0
 28 29  1  0  0  0  0
 28 54  1  0  0  0  0
 29 30  2  0  0  0  0
 29 55  1  0  0  0  0
 30 56  1  0  0  0  0
 31 32  1  0  0  0  0
 31 33  1  0  0  0  0
 31 34  1  0  0  0  0
 32 57  1  0  0  0  0
 32 58  1  0  0  0  0
 32 59  1  0  0  0  0
 33 60  1  0  0  0  0
 33 61  1  0  0  0  0
 33 62  1  0  0  0  0
 34 63  1  0  0  0  0
 34 64  1  0  0  0  0
 34 65  1  0  0  0  0
 35 36  1  0  0  0  0
 35 37  1  0  0  0  0
 35 38  1  0  0  0  0
 36 66  1  0  0  0  0
 36 67  1  0  0  0  0
 36 68  1  0  0  0  0
 37 69  1  0  0  0  0
 37 70  1  0  0  0  0
 37 71  1  0  0  0  0
 38 72  1  0  0  0  0
 38 73  1  0  0  0  0
 38 74  1  0  0  0  0
M  END
$$$$
