Title Card Required
 OpenBabel03192317533D

 31 32  0  0  1  0  0  0  0  0999 V2000
    0.6929    1.4572   -0.8082 C   0  0  2  0  0  0  0  0  0  0  0  0
   -0.4600    1.7893    0.1681 C   0  0  1  0  0  0  0  0  0  0  0  0
   -1.4759    0.6679    0.1924 C   0  0  0  0  0  0  0  0  0  0  0  0
   -2.4990    0.6209   -0.7589 C   0  0  0  0  0  0  0  0  0  0  0  0
   -3.3864   -0.4545   -0.7959 C   0  0  0  0  0  0  0  0  0  0  0  0
   -3.2614   -1.4933    0.1258 C   0  0  0  0  0  0  0  0  0  0  0  0
   -2.2478   -1.4487    1.0829 C   0  0  0  0  0  0  0  0  0  0  0  0
   -1.3594   -0.3761    1.1160 C   0  0  0  0  0  0  0  0  0  0  0  0
    1.3784    0.1435   -0.5022 C   0  0  0  0  0  0  0  0  0  0  0  0
    2.3893    0.0725    0.4612 C   0  0  0  0  0  0  0  0  0  0  0  0
    2.9857   -1.1501    0.7664 C   0  0  0  0  0  0  0  0  0  0  0  0
    2.5770   -2.3126    0.1134 C   0  0  0  0  0  0  0  0  0  0  0  0
    1.5706   -2.2484   -0.8498 C   0  0  0  0  0  0  0  0  0  0  0  0
    0.9784   -1.0254   -1.1564 C   0  0  0  0  0  0  0  0  0  0  0  0
    0.1055    2.0297    1.4806 N   0  0  0  0  0  0  0  0  0  0  0  0
    1.5766    2.5543   -0.7350 O   0  0  0  0  0  0  0  0  0  0  0  0
    0.2418    1.3833   -1.8158 H   0  0  0  0  0  0  0  0  0  0  0  0
   -0.9486    2.6844   -0.2681 H   0  0  0  0  0  0  0  0  0  0  0  0
   -2.6024    1.4376   -1.4786 H   0  0  0  0  0  0  0  0  0  0  0  0
   -4.1817   -0.4783   -1.5429 H   0  0  0  0  0  0  0  0  0  0  0  0
   -3.9556   -2.3348    0.1000 H   0  0  0  0  0  0  0  0  0  0  0  0
   -2.1435   -2.2594    1.8061 H   0  0  0  0  0  0  0  0  0  0  0  0
   -0.5502   -0.3366    1.8470 H   0  0  0  0  0  0  0  0  0  0  0  0
    2.6914    0.9824    0.9809 H   0  0  0  0  0  0  0  0  0  0  0  0
    3.7714   -1.1977    1.5223 H   0  0  0  0  0  0  0  0  0  0  0  0
    3.0449   -3.2688    0.3534 H   0  0  0  0  0  0  0  0  0  0  0  0
    1.2467   -3.1535   -1.3660 H   0  0  0  0  0  0  0  0  0  0  0  0
    0.1807   -0.9747   -1.9023 H   0  0  0  0  0  0  0  0  0  0  0  0
   -0.6212    2.3209    2.1307 H   0  0  0  0  0  0  0  0  0  0  0  0
    0.7869    2.7826    1.4090 H   0  0  0  0  0  0  0  0  0  0  0  0
    2.3928    2.3162   -1.1889 H   0  0  0  0  0  0  0  0  0  0  0  0
  1  2  1  0  0  0  0
  1  9  1  0  0  0  0
  1 16  1  0  0  0  0
  1 17  1  6  0  0  0
  2  3  1  0  0  0  0
  2 15  1  0  0  0  0
  2 18  1  6  0  0  0
  3  4  2  0  0  0  0
  3  8  1  0  0  0  0
  4  5  1  0  0  0  0
  4 19  1  0  0  0  0
  5  6  2  0  0  0  0
  5 20  1  0  0  0  0
  6  7  1  0  0  0  0
  6 21  1  0  0  0  0
  7  8  2  0  0  0  0
  7 22  1  0  0  0  0
  8 23  1  0  0  0  0
  9 10  2  0  0  0  0
  9 14  1  0  0  0  0
 10 11  1  0  0  0  0
 10 24  1  0  0  0  0
 11 12  2  0  0  0  0
 11 25  1  0  0  0  0
 12 13  1  0  0  0  0
 12 26  1  0  0  0  0
 13 14  2  0  0  0  0
 13 27  1  0  0  0  0
 14 28  1  0  0  0  0
 15 29  1  0  0  0  0
 15 30  1  0  0  0  0
 16 31  1  0  0  0  0
M  END
$$$$
