Title Card Required
 OpenBabel03192317513D

 59 65  0  0  1  0  0  0  0  0999 V2000
   -2.5183   -2.1603    0.2615 C   0  0  1  0  0  0  0  0  0  0  0  0
   -1.3967   -1.4515   -0.2770 O   0  0  0  0  0  0  0  0  0  0  0  0
   -1.1769   -0.3793    0.5235 C   0  0  0  0  0  0  0  0  0  0  0  0
   -0.0118    0.4833    0.1103 C   0  0  0  0  0  0  0  0  0  0  0  0
    0.4512    1.3374    1.3110 C   0  0  0  0  0  0  0  0  0  0  0  0
    1.3055    2.5538    0.9414 C   0  0  0  0  0  0  0  0  0  0  0  0
    0.4743    3.8152    0.6884 C   0  0  0  0  0  0  0  0  0  0  0  0
   -0.3745    3.8077   -0.5824 C   0  0  0  0  0  0  0  0  0  0  0  0
   -1.2626    2.5757   -0.7842 C   0  0  0  0  0  0  0  0  0  0  0  0
   -0.4663    1.3102   -1.1154 C   0  0  0  0  0  0  0  0  0  0  0  0
    1.1279   -0.4199   -0.2890 C   0  0  0  0  0  0  0  0  0  0  0  0
    1.8405   -0.3349   -1.3327 N   0  0  0  0  0  0  0  0  0  0  0  0
    2.9032   -1.3273   -1.1836 C   0  0  1  0  0  0  0  0  0  0  0  0
    4.2134   -0.6831   -0.7868 C   0  0  0  0  0  0  0  0  0  0  0  0
    4.9224    0.2937   -1.4815 C   0  0  0  0  0  0  0  0  0  0  0  0
    6.0925    0.8017   -0.9190 C   0  0  0  0  0  0  0  0  0  0  0  0
    6.5376    0.3400    0.3237 C   0  0  0  0  0  0  0  0  0  0  0  0
    5.8184   -0.6314    1.0201 C   0  0  0  0  0  0  0  0  0  0  0  0
    4.6481   -1.1407    0.4584 C   0  0  0  0  0  0  0  0  0  0  0  0
    3.7180   -2.1962    1.0107 C   0  0  0  0  0  0  0  0  0  0  0  0
    2.5048   -2.1570    0.0732 C   0  0  1  0  0  0  0  0  0  0  0  0
    1.4410   -1.3727    0.6245 O   0  0  0  0  0  0  0  0  0  0  0  0
   -2.0000   -0.1526    1.4597 N   0  0  0  0  0  0  0  0  0  0  0  0
   -3.0580   -1.1529    1.3202 C   0  0  1  0  0  0  0  0  0  0  0  0
   -4.2921   -0.5735    0.6598 C   0  0  0  0  0  0  0  0  0  0  0  0
   -4.5764   -1.2265   -0.5412 C   0  0  0  0  0  0  0  0  0  0  0  0
   -5.6543   -0.8168   -1.3243 C   0  0  0  0  0  0  0  0  0  0  0  0
   -6.4375    0.2531   -0.8924 C   0  0  0  0  0  0  0  0  0  0  0  0
   -6.1448    0.9102    0.3066 C   0  0  0  0  0  0  0  0  0  0  0  0
   -5.0656    0.5023    1.0902 C   0  0  0  0  0  0  0  0  0  0  0  0
   -3.6090   -2.3579   -0.7962 C   0  0  0  0  0  0  0  0  0  0  0  0
   -2.1459   -3.1043    0.6834 H   0  0  0  0  0  0  0  0  0  0  0  0
   -0.4468    1.6589    1.8571 H   0  0  0  0  0  0  0  0  0  0  0  0
    0.9957    0.6697    1.9942 H   0  0  0  0  0  0  0  0  0  0  0  0
    1.9934    2.7593    1.7750 H   0  0  0  0  0  0  0  0  0  0  0  0
    1.9466    2.3245    0.0719 H   0  0  0  0  0  0  0  0  0  0  0  0
   -0.1855    3.9652    1.5608 H   0  0  0  0  0  0  0  0  0  0  0  0
    1.1419    4.6909    0.6567 H   0  0  0  0  0  0  0  0  0  0  0  0
   -1.0023    4.7129   -0.5862 H   0  0  0  0  0  0  0  0  0  0  0  0
    0.2900    3.8926   -1.4598 H   0  0  0  0  0  0  0  0  0  0  0  0
   -1.9091    2.4062    0.0944 H   0  0  0  0  0  0  0  0  0  0  0  0
   -1.9446    2.7808   -1.6228 H   0  0  0  0  0  0  0  0  0  0  0  0
    0.4314    1.5707   -1.6934 H   0  0  0  0  0  0  0  0  0  0  0  0
   -1.0507    0.6383   -1.7616 H   0  0  0  0  0  0  0  0  0  0  0  0
    2.9959   -1.9260   -2.1019 H   0  0  0  0  0  0  0  0  0  0  0  0
    4.5556    0.6593   -2.4423 H   0  0  0  0  0  0  0  0  0  0  0  0
    6.6615    1.5684   -1.4472 H   0  0  0  0  0  0  0  0  0  0  0  0
    7.4534    0.7479    0.7548 H   0  0  0  0  0  0  0  0  0  0  0  0
    6.1663   -0.9830    1.9935 H   0  0  0  0  0  0  0  0  0  0  0  0
    3.4094   -2.0020    2.0479 H   0  0  0  0  0  0  0  0  0  0  0  0
    4.1924   -3.1898    0.9880 H   0  0  0  0  0  0  0  0  0  0  0  0
    2.1011   -3.1539   -0.1524 H   0  0  0  0  0  0  0  0  0  0  0  0
   -3.2846   -1.6096    2.2949 H   0  0  0  0  0  0  0  0  0  0  0  0
   -5.8804   -1.3228   -2.2651 H   0  0  0  0  0  0  0  0  0  0  0  0
   -7.2829    0.5837   -1.4980 H   0  0  0  0  0  0  0  0  0  0  0  0
   -6.7620    1.7512    0.6265 H   0  0  0  0  0  0  0  0  0  0  0  0
   -4.8190    1.0205    2.0186 H   0  0  0  0  0  0  0  0  0  0  0  0
   -3.1740   -2.3367   -1.8057 H   0  0  0  0  0  0  0  0  0  0  0  0
   -4.1008   -3.3349   -0.6679 H   0  0  0  0  0  0  0  0  0  0  0  0
  1  2  1  0  0  0  0
  1 24  1  0  0  0  0
  1 31  1  0  0  0  0
  1 32  1  1  0  0  0
  2  3  1  0  0  0  0
  3  4  1  0  0  0  0
  3 23  2  0  0  0  0
  4  5  1  0  0  0  0
  4 10  1  0  0  0  0
  4 11  1  0  0  0  0
  5  6  1  0  0  0  0
  5 33  1  0  0  0  0
  5 34  1  0  0  0  0
  6  7  1  0  0  0  0
  6 35  1  0  0  0  0
  6 36  1  0  0  0  0
  7  8  1  0  0  0  0
  7 37  1  0  0  0  0
  7 38  1  0  0  0  0
  8  9  1  0  0  0  0
  8 39  1  0  0  0  0
  8 40  1  0  0  0  0
  9 10  1  0  0  0  0
  9 41  1  0  0  0  0
  9 42  1  0  0  0  0
 10 43  1  0  0  0  0
 10 44  1  0  0  0  0
 11 12  2  0  0  0  0
 11 22  1  0  0  0  0
 12 13  1  0  0  0  0
 13 14  1  0  0  0  0
 13 21  1  0  0  0  0
 13 45  1  6  0  0  0
 14 15  2  0  0  0  0
 14 19  1  0  0  0  0
 15 16  1  0  0  0  0
 15 46  1  0  0  0  0
 16 17  2  0  0  0  0
 16 47  1  0  0  0  0
 17 18  1  0  0  0  0
 17 48  1  0  0  0  0
 18 19  2  0  0  0  0
 18 49  1  0  0  0  0
 19 20  1  0  0  0  0
 20 21  1  0  0  0  0
 20 50  1  0  0  0  0
 20 51  1  0  0  0  0
 21 22  1  0  0  0  0
 21 52  1  6  0  0  0
 23 24  1  0  0  0  0
 24 25  1  0  0  0  0
 24 53  1  1  0  0  0
 25 26  2  0  0  0  0
 25 30  1  0  0  0  0
 26 27  1  0  0  0  0
 26 31  1  0  0  0  0
 27 28  2  0  0  0  0
 27 54  1  0  0  0  0
 28 29  1  0  0  0  0
 28 55  1  0  0  0  0
 29 30  2  0  0  0  0
 29 56  1  0  0  0  0
 30 57  1  0  0  0  0
 31 58  1  0  0  0  0
 31 59  1  0  0  0  0
M  END
$$$$
