Title Card Required
 OpenBabel03192317443D

 70 75  0  0  1  0  0  0  0  0999 V2000
   -0.6193    0.1681   -1.1342 C   0  0  1  0  0  0  0  0  0  0  0  0
    0.4971   -0.6836   -0.4673 C   0  0  1  0  0  0  0  0  0  0  0  0
   -1.8873   -0.5261   -1.0424 N   0  0  0  0  0  0  0  0  0  0  0  0
    1.7724   -0.0373   -0.6935 N   0  0  0  0  0  0  0  0  0  0  0  0
    0.2421   -0.8926    1.0151 C   0  0  0  0  0  0  0  0  0  0  0  0
    0.8259   -0.0532    1.9713 C   0  0  0  0  0  0  0  0  0  0  0  0
    0.5349   -0.2153    3.3245 C   0  0  0  0  0  0  0  0  0  0  0  0
   -0.3478   -1.2126    3.7394 C   0  0  0  0  0  0  0  0  0  0  0  0
   -0.9277   -2.0578    2.7940 C   0  0  0  0  0  0  0  0  0  0  0  0
   -0.6258   -1.9045    1.4409 C   0  0  0  0  0  0  0  0  0  0  0  0
   -0.6298    1.6068   -0.6353 C   0  0  0  0  0  0  0  0  0  0  0  0
   -1.2161    1.9366    0.5929 C   0  0  0  0  0  0  0  0  0  0  0  0
   -1.2054    3.2503    1.0589 C   0  0  0  0  0  0  0  0  0  0  0  0
   -0.6071    4.2580    0.3030 C   0  0  0  0  0  0  0  0  0  0  0  0
   -0.0235    3.9436   -0.9230 C   0  0  0  0  0  0  0  0  0  0  0  0
   -0.0403    2.6280   -1.3859 C   0  0  0  0  0  0  0  0  0  0  0  0
    2.9387   -0.8507   -0.4299 C   0  0  0  0  0  0  0  0  0  0  0  0
    4.2181   -0.0421   -0.4184 C   0  0  0  0  0  0  0  0  0  0  0  0
    4.1873    1.3333   -0.4722 C   0  0  0  0  0  0  0  0  0  0  0  0
    5.3814    2.0976   -0.4687 C   0  0  0  0  0  0  0  0  0  0  0  0
    6.6016    1.4782   -0.4063 C   0  0  0  0  0  0  0  0  0  0  0  0
    6.6821    0.0598   -0.3321 C   0  0  0  0  0  0  0  0  0  0  0  0
    7.9362   -0.6027   -0.2479 C   0  0  0  0  0  0  0  0  0  0  0  0
    8.0089   -1.9712   -0.1597 C   0  0  0  0  0  0  0  0  0  0  0  0
    6.8215   -2.7410   -0.1505 C   0  0  0  0  0  0  0  0  0  0  0  0
    5.5934   -2.1285   -0.2353 C   0  0  0  0  0  0  0  0  0  0  0  0
    5.4832   -0.7129   -0.3335 C   0  0  0  0  0  0  0  0  0  0  0  0
   -2.9140   -0.0125   -1.9405 C   0  0  0  0  0  0  0  0  0  0  0  0
   -4.2380   -0.6823   -1.6681 C   0  0  0  0  0  0  0  0  0  0  0  0
   -4.6492   -1.7477   -2.4369 C   0  0  0  0  0  0  0  0  0  0  0  0
   -5.8541   -2.4382   -2.1611 C   0  0  0  0  0  0  0  0  0  0  0  0
   -6.6377   -2.0589   -1.1011 C   0  0  0  0  0  0  0  0  0  0  0  0
   -6.2545   -0.9666   -0.2761 C   0  0  0  0  0  0  0  0  0  0  0  0
   -7.0515   -0.5582    0.8284 C   0  0  0  0  0  0  0  0  0  0  0  0
   -6.6751    0.4998    1.6184 C   0  0  0  0  0  0  0  0  0  0  0  0
   -5.4817    1.2060    1.3318 C   0  0  0  0  0  0  0  0  0  0  0  0
   -4.6915    0.8364    0.2700 C   0  0  0  0  0  0  0  0  0  0  0  0
   -5.0461   -0.2644   -0.5612 C   0  0  0  0  0  0  0  0  0  0  0  0
   -0.3591    0.1987   -2.2081 H   0  0  0  0  0  0  0  0  0  0  0  0
    0.4259   -1.6752   -0.9595 H   0  0  0  0  0  0  0  0  0  0  0  0
   -2.2290   -0.5421   -0.0819 H   0  0  0  0  0  0  0  0  0  0  0  0
    1.8188    0.3518   -1.6328 H   0  0  0  0  0  0  0  0  0  0  0  0
    1.5053    0.7317    1.6324 H   0  0  0  0  0  0  0  0  0  0  0  0
    0.9979    0.4448    4.0600 H   0  0  0  0  0  0  0  0  0  0  0  0
   -0.5767   -1.3369    4.7990 H   0  0  0  0  0  0  0  0  0  0  0  0
   -1.6113   -2.8469    3.1112 H   0  0  0  0  0  0  0  0  0  0  0  0
   -1.0751   -2.5681    0.6983 H   0  0  0  0  0  0  0  0  0  0  0  0
   -1.6764    1.1563    1.2043 H   0  0  0  0  0  0  0  0  0  0  0  0
   -1.6638    3.4855    2.0210 H   0  0  0  0  0  0  0  0  0  0  0  0
   -0.5992    5.2864    0.6672 H   0  0  0  0  0  0  0  0  0  0  0  0
    0.4408    4.7260   -1.5256 H   0  0  0  0  0  0  0  0  0  0  0  0
    0.4096    2.3911   -2.3544 H   0  0  0  0  0  0  0  0  0  0  0  0
    2.8087   -1.3252    0.5584 H   0  0  0  0  0  0  0  0  0  0  0  0
    3.0407   -1.6859   -1.1534 H   0  0  0  0  0  0  0  0  0  0  0  0
    3.2208    1.8378   -0.5095 H   0  0  0  0  0  0  0  0  0  0  0  0
    5.3190    3.1860   -0.5155 H   0  0  0  0  0  0  0  0  0  0  0  0
    7.5264    2.0587   -0.4054 H   0  0  0  0  0  0  0  0  0  0  0  0
    8.8456    0.0023   -0.2504 H   0  0  0  0  0  0  0  0  0  0  0  0
    8.9781   -2.4674   -0.0923 H   0  0  0  0  0  0  0  0  0  0  0  0
    6.8820   -3.8277   -0.0734 H   0  0  0  0  0  0  0  0  0  0  0  0
    4.6908   -2.7403   -0.2201 H   0  0  0  0  0  0  0  0  0  0  0  0
   -3.0245    1.0891   -1.8779 H   0  0  0  0  0  0  0  0  0  0  0  0
   -2.6063   -0.2354   -2.9744 H   0  0  0  0  0  0  0  0  0  0  0  0
   -4.0259   -2.0690   -3.2740 H   0  0  0  0  0  0  0  0  0  0  0  0
   -6.1512   -3.2764   -2.7931 H   0  0  0  0  0  0  0  0  0  0  0  0
   -7.5657   -2.5882   -0.8754 H   0  0  0  0  0  0  0  0  0  0  0  0
   -7.9736   -1.1050    1.0366 H   0  0  0  0  0  0  0  0  0  0  0  0
   -7.2949    0.8017    2.4640 H   0  0  0  0  0  0  0  0  0  0  0  0
   -5.1902    2.0536    1.9544 H   0  0  0  0  0  0  0  0  0  0  0  0
   -3.7809    1.3999    0.0608 H   0  0  0  0  0  0  0  0  0  0  0  0
  1  2  1  0  0  0  0
  1  3  1  0  0  0  0
  1 11  1  0  0  0  0
  1 39  1  6  0  0  0
  2  4  1  0  0  0  0
  2  5  1  0  0  0  0
  2 40  1  6  0  0  0
  3 28  1  0  0  0  0
  3 41  1  0  0  0  0
  4 17  1  0  0  0  0
  4 42  1  0  0  0  0
  5  6  2  0  0  0  0
  5 10  1  0  0  0  0
  6  7  1  0  0  0  0
  6 43  1  0  0  0  0
  7  8  2  0  0  0  0
  7 44  1  0  0  0  0
  8  9  1  0  0  0  0
  8 45  1  0  0  0  0
  9 10  2  0  0  0  0
  9 46  1  0  0  0  0
 10 47  1  0  0  0  0
 11 12  2  0  0  0  0
 11 16  1  0  0  0  0
 12 13  1  0  0  0  0
 12 48  1  0  0  0  0
 13 14  2  0  0  0  0
 13 49  1  0  0  0  0
 14 15  1  0  0  0  0
 14 50  1  0  0  0  0
 15 16  2  0  0  0  0
 15 51  1  0  0  0  0
 16 52  1  0  0  0  0
 17 18  1  0  0  0  0
 17 53  1  0  0  0  0
 17 54  1  0  0  0  0
 18 19  2  0  0  0  0
 18 27  1  0  0  0  0
 19 20  1  0  0  0  0
 19 55  1  0  0  0  0
 20 21  2  0  0  0  0
 20 56  1  0  0  0  0
 21 22  1  0  0  0  0
 21 57  1  0  0  0  0
 22 23  2  0  0  0  0
 22 27  1  0  0  0  0
 23 24  1  0  0  0  0
 23 58  1  0  0  0  0
 24 25  2  0  0  0  0
 24 59  1  0  0  0  0
 25 26  1  0  0  0  0
 25 60  1  0  0  0  0
 26 27  2  0  0  0  0
 26 61  1  0  0  0  0
 28 29  1  0  0  0  0
 28 62  1  0  0  0  0
 28 63  1  0  0  0  0
 29 30  2  0  0  0  0
 29 38  1  0  0  0  0
 30 31  1  0  0  0  0
 30 64  1  0  0  0  0
 31 32  2  0  0  0  0
 31 65  1  0  0  0  0
 32 33  1  0  0  0  0
 32 66  1  0  0  0  0
 33 34  2  0  0  0  0
 33 38  1  0  0  0  0
 34 35  1  0  0  0  0
 34 67  1  0  0  0  0
 35 36  2  0  0  0  0
 35 68  1  0  0  0  0
 36 37  1  0  0  0  0
 36 69  1  0  0  0  0
 37 38  2  0  0  0  0
 37 70  1  0  0  0  0
M  END
$$$$
