Title Card Required
 OpenBabel03192317493D

 64 66  0  0  0  0  0  0  0  0999 V2000
   -0.9011   -3.0340   -1.2917 C   0  0  0  0  0  0  0  0  0  0  0  0
    0.2321    2.7496   -0.8667 C   0  0  0  0  0  0  0  0  0  0  0  0
    4.3794    2.5077   -0.5635 C   0  0  0  0  0  0  0  0  0  0  0  0
    2.8315    2.0046    1.3487 C   0  0  0  0  0  0  0  0  0  0  0  0
    4.7361    0.5055    0.8876 C   0  0  0  0  0  0  0  0  0  0  0  0
    3.7908   -0.7517   -1.6832 C   0  0  0  0  0  0  0  0  0  0  0  0
    2.8251   -1.8553    0.0839 C   0  0  0  0  0  0  0  0  0  0  0  0
    2.6855   -2.9001    0.9925 C   0  0  0  0  0  0  0  0  0  0  0  0
    1.5127   -2.9480    1.7419 C   0  0  0  0  0  0  0  0  0  0  0  0
    0.4800   -2.0439    1.5090 C   0  0  0  0  0  0  0  0  0  0  0  0
    0.5941   -1.0169    0.5535 C   0  0  0  0  0  0  0  0  0  0  0  0
    1.8460   -0.8553   -0.0714 C   0  0  0  0  0  0  0  0  0  0  0  0
   -0.7032   -0.3498    0.1845 C   0  0  0  0  0  0  0  0  0  0  0  0
    3.6779    1.3962    0.2279 C   0  0  0  0  0  0  0  0  0  0  0  0
   -1.7956   -1.2061   -0.0876 C   0  0  0  0  0  0  0  0  0  0  0  0
   -0.9623    1.0370    0.1910 C   0  0  0  0  0  0  0  0  0  0  0  0
   -3.1044   -0.7279   -0.2543 C   0  0  0  0  0  0  0  0  0  0  0  0
   -3.3175    0.6356   -0.0836 C   0  0  0  0  0  0  0  0  0  0  0  0
   -2.2755    1.5337    0.1530 C   0  0  0  0  0  0  0  0  0  0  0  0
    3.9282   -1.7657   -0.6935 O   0  0  0  0  0  0  0  0  0  0  0  0
    0.0964    1.9025    0.2638 O   0  0  0  0  0  0  0  0  0  0  0  0
   -1.6357   -2.5632   -0.1809 O   0  0  0  0  0  0  0  0  0  0  0  0
    2.5594    0.5138   -1.0710 P   0  0  1  0  0  0  0  0  0  0  0  0
   -2.6051    2.9891    0.4507 C   0  0  0  0  0  0  0  0  0  0  0  0
   -3.2345    3.6968   -0.7534 C   0  0  0  0  0  0  0  0  0  0  0  0
   -3.5219    3.0905    1.6754 C   0  0  0  0  0  0  0  0  0  0  0  0
   -4.2288   -1.7117   -0.5253 C   0  0  0  0  0  0  0  0  0  0  0  0
   -4.5840   -2.4772    0.7553 C   0  0  0  0  0  0  0  0  0  0  0  0
   -5.4707   -1.0602   -1.1283 C   0  0  0  0  0  0  0  0  0  0  0  0
   -1.0095   -4.1253   -1.3048 H   0  0  0  0  0  0  0  0  0  0  0  0
    0.1681   -2.7805   -1.2129 H   0  0  0  0  0  0  0  0  0  0  0  0
   -1.3039   -2.6167   -2.2301 H   0  0  0  0  0  0  0  0  0  0  0  0
    1.2385    3.1844   -0.8263 H   0  0  0  0  0  0  0  0  0  0  0  0
    0.1405    2.1746   -1.7998 H   0  0  0  0  0  0  0  0  0  0  0  0
   -0.5052    3.5644   -0.8612 H   0  0  0  0  0  0  0  0  0  0  0  0
    3.6566    3.2029   -1.0171 H   0  0  0  0  0  0  0  0  0  0  0  0
    5.0350    3.0872    0.1064 H   0  0  0  0  0  0  0  0  0  0  0  0
    5.0085    2.0995   -1.3709 H   0  0  0  0  0  0  0  0  0  0  0  0
    2.2337    1.2368    1.8616 H   0  0  0  0  0  0  0  0  0  0  0  0
    3.5076    2.4654    2.0876 H   0  0  0  0  0  0  0  0  0  0  0  0
    2.1409    2.7786    0.9960 H   0  0  0  0  0  0  0  0  0  0  0  0
    4.2776   -0.2912    1.4905 H   0  0  0  0  0  0  0  0  0  0  0  0
    5.4240    0.0429    0.1681 H   0  0  0  0  0  0  0  0  0  0  0  0
    5.3370    1.1301    1.5691 H   0  0  0  0  0  0  0  0  0  0  0  0
    3.4099   -1.2055   -2.6144 H   0  0  0  0  0  0  0  0  0  0  0  0
    4.7809   -0.3202   -1.8829 H   0  0  0  0  0  0  0  0  0  0  0  0
    3.4795   -3.6390    1.0973 H   0  0  0  0  0  0  0  0  0  0  0  0
    1.3782   -3.7350    2.4856 H   0  0  0  0  0  0  0  0  0  0  0  0
   -0.4667   -2.1672    2.0334 H   0  0  0  0  0  0  0  0  0  0  0  0
   -4.3358    1.0259   -0.1401 H   0  0  0  0  0  0  0  0  0  0  0  0
   -1.6685    3.4961    0.7188 H   0  0  0  0  0  0  0  0  0  0  0  0
   -4.1984    3.2320   -1.0120 H   0  0  0  0  0  0  0  0  0  0  0  0
   -3.4244    4.7572   -0.5298 H   0  0  0  0  0  0  0  0  0  0  0  0
   -2.5916    3.6389   -1.6434 H   0  0  0  0  0  0  0  0  0  0  0  0
   -3.0713    2.5943    2.5461 H   0  0  0  0  0  0  0  0  0  0  0  0
   -3.7034    4.1450    1.9312 H   0  0  0  0  0  0  0  0  0  0  0  0
   -4.4981    2.6197    1.4847 H   0  0  0  0  0  0  0  0  0  0  0  0
   -3.8404   -2.4449   -1.2496 H   0  0  0  0  0  0  0  0  0  0  0  0
   -4.9588   -1.7800    1.5207 H   0  0  0  0  0  0  0  0  0  0  0  0
   -5.3672   -3.2250    0.5598 H   0  0  0  0  0  0  0  0  0  0  0  0
   -3.7008   -2.9930    1.1543 H   0  0  0  0  0  0  0  0  0  0  0  0
   -5.2263   -0.4639   -2.0195 H   0  0  0  0  0  0  0  0  0  0  0  0
   -6.1967   -1.8328   -1.4192 H   0  0  0  0  0  0  0  0  0  0  0  0
   -5.9714   -0.4014   -0.4022 H   0  0  0  0  0  0  0  0  0  0  0  0
  1 22  1  0  0  0  0
  1 30  1  0  0  0  0
  1 31  1  0  0  0  0
  1 32  1  0  0  0  0
  2 21  1  0  0  0  0
  2 33  1  0  0  0  0
  2 34  1  0  0  0  0
  2 35  1  0  0  0  0
  3 14  1  0  0  0  0
  3 36  1  0  0  0  0
  3 37  1  0  0  0  0
  3 38  1  0  0  0  0
  4 14  1  0  0  0  0
  4 39  1  0  0  0  0
  4 40  1  0  0  0  0
  4 41  1  0  0  0  0
  5 14  1  0  0  0  0
  5 42  1  0  0  0  0
  5 43  1  0  0  0  0
  5 44  1  0  0  0  0
  6 20  1  0  0  0  0
  6 23  1  0  0  0  0
  6 45  1  0  0  0  0
  6 46  1  0  0  0  0
  7  8  2  0  0  0  0
  7 12  1  0  0  0  0
  7 20  1  0  0  0  0
  8  9  1  0  0  0  0
  8 47  1  0  0  0  0
  9 10  2  0  0  0  0
  9 48  1  0  0  0  0
 10 11  1  0  0  0  0
 10 49  1  0  0  0  0
 11 12  2  0  0  0  0
 11 13  1  0  0  0  0
 12 23  1  0  0  0  0
 13 15  2  0  0  0  0
 13 16  1  0  0  0  0
 15 17  1  0  0  0  0
 15 22  1  0  0  0  0
 16 19  2  0  0  0  0
 16 21  1  0  0  0  0
 17 18  2  0  0  0  0
 17 27  1  0  0  0  0
 18 19  1  0  0  0  0
 18 50  1  0  0  0  0
 19 24  1  0  0  0  0
 23 14  1  1  0  0  0
 24 25  1  0  0  0  0
 24 26  1  0  0  0  0
 24 51  1  0  0  0  0
 25 52  1  0  0  0  0
 25 53  1  0  0  0  0
 25 54  1  0  0  0  0
 26 55  1  0  0  0  0
 26 56  1  0  0  0  0
 26 57  1  0  0  0  0
 27 28  1  0  0  0  0
 27 29  1  0  0  0  0
 27 58  1  0  0  0  0
 28 59  1  0  0  0  0
 28 60  1  0  0  0  0
 28 61  1  0  0  0  0
 29 62  1  0  0  0  0
 29 63  1  0  0  0  0
 29 64  1  0  0  0  0
M  END
$$$$
