Title Card Required
 OpenBabel03192317463D

 38 39  0  0  1  0  0  0  0  0999 V2000
   -1.1342    1.7220   -0.3592 O   0  0  0  0  0  0  0  0  0  0  0  0
   -0.5864    0.4980   -0.4593 C   0  0  0  0  0  0  0  0  0  0  0  0
   -1.3446   -0.4847   -0.7286 N   0  0  0  0  0  0  0  0  0  0  0  0
   -2.7089    0.0363   -0.8001 C   0  0  2  0  0  0  0  0  0  0  0  0
   -2.5107    1.5710   -0.7054 C   0  0  0  0  0  0  0  0  0  0  0  0
    0.8796    0.3990   -0.2308 C   0  0  0  0  0  0  0  0  0  0  0  0
    1.4721   -0.8573   -0.2971 C   0  0  0  0  0  0  0  0  0  0  0  0
    2.8508   -0.9409   -0.0836 C   0  0  0  0  0  0  0  0  0  0  0  0
    3.5552    0.2369    0.1861 C   0  0  0  0  0  0  0  0  0  0  0  0
    2.8528    1.4493    0.2312 C   0  0  0  0  0  0  0  0  0  0  0  0
    1.5408    1.5281    0.0253 N   0  0  0  0  0  0  0  0  0  0  0  0
    3.5628    2.7435    0.5232 C   0  0  0  0  0  0  0  0  0  0  0  0
    3.4084   -2.1604   -0.1534 O   0  0  0  0  0  0  0  0  0  0  0  0
    4.7959   -2.2773    0.0387 C   0  0  0  0  0  0  0  0  0  0  0  0
   -3.6066   -0.5853    0.2982 C   0  0  0  0  0  0  0  0  0  0  0  0
   -3.0290   -0.2958    1.6861 C   0  0  0  0  0  0  0  0  0  0  0  0
   -5.0182   -0.0033    0.1802 C   0  0  0  0  0  0  0  0  0  0  0  0
   -3.6641   -2.0990    0.0739 C   0  0  0  0  0  0  0  0  0  0  0  0
   -3.1494   -0.2414   -1.7722 H   0  0  0  0  0  0  0  0  0  0  0  0
   -2.6874    2.0798   -1.6642 H   0  0  0  0  0  0  0  0  0  0  0  0
   -3.1196    2.0564    0.0690 H   0  0  0  0  0  0  0  0  0  0  0  0
    0.8792   -1.7446   -0.5133 H   0  0  0  0  0  0  0  0  0  0  0  0
    4.6298    0.2349    0.3608 H   0  0  0  0  0  0  0  0  0  0  0  0
    3.3773    3.4588   -0.2897 H   0  0  0  0  0  0  0  0  0  0  0  0
    3.1563    3.1878    1.4426 H   0  0  0  0  0  0  0  0  0  0  0  0
    4.6444    2.6033    0.6412 H   0  0  0  0  0  0  0  0  0  0  0  0
    5.3556   -1.7025   -0.7170 H   0  0  0  0  0  0  0  0  0  0  0  0
    5.0934   -1.9375    1.0440 H   0  0  0  0  0  0  0  0  0  0  0  0
    5.0366   -3.3405   -0.0668 H   0  0  0  0  0  0  0  0  0  0  0  0
   -2.9226    0.7846    1.8711 H   0  0  0  0  0  0  0  0  0  0  0  0
   -3.6895   -0.7040    2.4658 H   0  0  0  0  0  0  0  0  0  0  0  0
   -2.0386   -0.7601    1.7987 H   0  0  0  0  0  0  0  0  0  0  0  0
   -5.4320   -0.1712   -0.8266 H   0  0  0  0  0  0  0  0  0  0  0  0
   -5.6900   -0.4865    0.9053 H   0  0  0  0  0  0  0  0  0  0  0  0
   -5.0389    1.0782    0.3831 H   0  0  0  0  0  0  0  0  0  0  0  0
   -4.1054   -2.3320   -0.9079 H   0  0  0  0  0  0  0  0  0  0  0  0
   -2.6552   -2.5312    0.1056 H   0  0  0  0  0  0  0  0  0  0  0  0
   -4.2826   -2.5790    0.8475 H   0  0  0  0  0  0  0  0  0  0  0  0
  1  2  1  0  0  0  0
  1  5  1  0  0  0  0
  2  3  2  0  0  0  0
  2  6  1  0  0  0  0
  3  4  1  0  0  0  0
  4  5  1  0  0  0  0
  4 15  1  0  0  0  0
  4 19  1  6  0  0  0
  5 20  1  0  0  0  0
  5 21  1  0  0  0  0
  6  7  2  0  0  0  0
  6 11  1  0  0  0  0
  7  8  1  0  0  0  0
  7 22  1  0  0  0  0
  8  9  2  0  0  0  0
  8 13  1  0  0  0  0
  9 10  1  0  0  0  0
  9 23  1  0  0  0  0
 10 11  2  0  0  0  0
 10 12  1  0  0  0  0
 12 24  1  0  0  0  0
 12 25  1  0  0  0  0
 12 26  1  0  0  0  0
 13 14  1  0  0  0  0
 14 27  1  0  0  0  0
 14 28  1  0  0  0  0
 14 29  1  0  0  0  0
 15 16  1  0  0  0  0
 15 17  1  0  0  0  0
 15 18  1  0  0  0  0
 16 30  1  0  0  0  0
 16 31  1  0  0  0  0
 16 32  1  0  0  0  0
 17 33  1  0  0  0  0
 17 34  1  0  0  0  0
 17 35  1  0  0  0  0
 18 36  1  0  0  0  0
 18 37  1  0  0  0  0
 18 38  1  0  0  0  0
M  END
$$$$
