Title Card Required
 OpenBabel03192317533D

 87 94  0  0  1  0  0  0  0  0999 V2000
    1.0346   -0.5648   -0.1683 O   0  0  0  0  0  0  0  0  0  0  0  0
    0.9204    0.7771   -0.3252 C   0  0  0  0  0  0  0  0  0  0  0  0
    1.7168    1.3494   -1.1245 N   0  0  0  0  0  0  0  0  0  0  0  0
    2.5836    0.3089   -1.6750 C   0  0  2  0  0  0  0  0  0  0  0  0
    1.8196   -1.0073   -1.2832 C   0  0  1  0  0  0  0  0  0  0  0  0
   -0.1729    1.4188    0.4890 C   0  0  0  0  0  0  0  0  0  0  0  0
   -3.6875    0.6719   -0.0454 C   0  0  2  0  0  0  0  0  0  0  0  0
   -3.0162   -0.1719   -1.1962 C   0  0  1  0  0  0  0  0  0  0  0  0
   -1.6245    0.2631   -1.1484 N   0  0  0  0  0  0  0  0  0  0  0  0
   -1.4708    0.8763   -0.0535 C   0  0  0  0  0  0  0  0  0  0  0  0
   -2.5534    1.0778    0.7323 O   0  0  0  0  0  0  0  0  0  0  0  0
   -4.7081   -0.0287    0.8022 C   0  0  0  0  0  0  0  0  0  0  0  0
   -3.1203   -1.6759   -1.0188 C   0  0  0  0  0  0  0  0  0  0  0  0
    4.0039    0.4120   -1.1573 C   0  0  0  0  0  0  0  0  0  0  0  0
    2.6310   -2.2242   -0.9493 C   0  0  0  0  0  0  0  0  0  0  0  0
    2.6744   -3.2969   -1.8414 C   0  0  0  0  0  0  0  0  0  0  0  0
    3.4788   -4.4065   -1.5762 C   0  0  0  0  0  0  0  0  0  0  0  0
    4.2373   -4.4533   -0.4090 C   0  0  0  0  0  0  0  0  0  0  0  0
    4.1903   -3.3872    0.4915 C   0  0  0  0  0  0  0  0  0  0  0  0
    3.3954   -2.2782    0.2222 C   0  0  0  0  0  0  0  0  0  0  0  0
    4.3137    1.0924    0.0221 C   0  0  0  0  0  0  0  0  0  0  0  0
    5.6231    1.0955    0.5067 C   0  0  0  0  0  0  0  0  0  0  0  0
    6.6309    0.4225   -0.1798 C   0  0  0  0  0  0  0  0  0  0  0  0
    6.3287   -0.2507   -1.3649 C   0  0  0  0  0  0  0  0  0  0  0  0
    5.0247   -0.2498   -1.8499 C   0  0  0  0  0  0  0  0  0  0  0  0
   -4.3205   -2.3249   -1.3288 C   0  0  0  0  0  0  0  0  0  0  0  0
   -4.4710   -3.6882   -1.0936 C   0  0  0  0  0  0  0  0  0  0  0  0
   -3.4136   -4.4251   -0.5577 C   0  0  0  0  0  0  0  0  0  0  0  0
   -2.2084   -3.7900   -0.2676 C   0  0  0  0  0  0  0  0  0  0  0  0
   -2.0600   -2.4205   -0.4955 C   0  0  0  0  0  0  0  0  0  0  0  0
   -4.3103   -0.9016    1.8193 C   0  0  0  0  0  0  0  0  0  0  0  0
   -5.2611   -1.6275    2.5303 C   0  0  0  0  0  0  0  0  0  0  0  0
   -6.6176   -1.4894    2.2313 C   0  0  0  0  0  0  0  0  0  0  0  0
   -7.0196   -0.6122    1.2264 C   0  0  0  0  0  0  0  0  0  0  0  0
   -6.0663    0.1194    0.5180 C   0  0  0  0  0  0  0  0  0  0  0  0
   -0.0484    0.9691    1.9724 C   0  0  0  0  0  0  0  0  0  0  0  0
    1.3279    1.1575    2.5628 C   0  0  0  0  0  0  0  0  0  0  0  0
    1.8175    2.4198    2.9218 C   0  0  0  0  0  0  0  0  0  0  0  0
    3.1023    2.5631    3.4458 C   0  0  0  0  0  0  0  0  0  0  0  0
    3.9145    1.4445    3.6297 C   0  0  0  0  0  0  0  0  0  0  0  0
    3.4341    0.1819    3.2864 C   0  0  0  0  0  0  0  0  0  0  0  0
    2.1521    0.0436    2.7571 C   0  0  0  0  0  0  0  0  0  0  0  0
   -0.1566    2.9682    0.3481 C   0  0  0  0  0  0  0  0  0  0  0  0
   -0.9109    3.4980   -0.8507 C   0  0  0  0  0  0  0  0  0  0  0  0
   -2.2590    3.8531   -0.7166 C   0  0  0  0  0  0  0  0  0  0  0  0
   -2.9950    4.2972   -1.8143 C   0  0  0  0  0  0  0  0  0  0  0  0
   -2.3874    4.3973   -3.0653 C   0  0  0  0  0  0  0  0  0  0  0  0
   -1.0423    4.0584   -3.2054 C   0  0  0  0  0  0  0  0  0  0  0  0
   -0.3081    3.6107   -2.1082 C   0  0  0  0  0  0  0  0  0  0  0  0
    2.6087    0.3923   -2.7706 H   0  0  0  0  0  0  0  0  0  0  0  0
    1.1061   -1.2405   -2.0910 H   0  0  0  0  0  0  0  0  0  0  0  0
   -4.1204    1.5845   -0.4876 H   0  0  0  0  0  0  0  0  0  0  0  0
   -3.4697    0.1044   -2.1588 H   0  0  0  0  0  0  0  0  0  0  0  0
    2.0696   -3.2663   -2.7508 H   0  0  0  0  0  0  0  0  0  0  0  0
    3.5060   -5.2388   -2.2811 H   0  0  0  0  0  0  0  0  0  0  0  0
    4.8651   -5.3205   -0.1979 H   0  0  0  0  0  0  0  0  0  0  0  0
    4.7868   -3.4164    1.4049 H   0  0  0  0  0  0  0  0  0  0  0  0
    3.3786   -1.4314    0.9092 H   0  0  0  0  0  0  0  0  0  0  0  0
    3.5293    1.6185    0.5718 H   0  0  0  0  0  0  0  0  0  0  0  0
    5.8490    1.6307    1.4306 H   0  0  0  0  0  0  0  0  0  0  0  0
    7.6530    0.4260    0.2025 H   0  0  0  0  0  0  0  0  0  0  0  0
    7.1124   -0.7778   -1.9114 H   0  0  0  0  0  0  0  0  0  0  0  0
    4.7862   -0.7890   -2.7705 H   0  0  0  0  0  0  0  0  0  0  0  0
   -5.1530   -1.7513   -1.7442 H   0  0  0  0  0  0  0  0  0  0  0  0
   -5.4164   -4.1793   -1.3295 H   0  0  0  0  0  0  0  0  0  0  0  0
   -3.5293   -5.4945   -0.3741 H   0  0  0  0  0  0  0  0  0  0  0  0
   -1.3713   -4.3614    0.1375 H   0  0  0  0  0  0  0  0  0  0  0  0
   -1.1114   -1.9258   -0.2753 H   0  0  0  0  0  0  0  0  0  0  0  0
   -3.2475   -1.0131    2.0409 H   0  0  0  0  0  0  0  0  0  0  0  0
   -4.9420   -2.3093    3.3200 H   0  0  0  0  0  0  0  0  0  0  0  0
   -7.3617   -2.0617    2.7874 H   0  0  0  0  0  0  0  0  0  0  0  0
   -8.0792   -0.4916    0.9961 H   0  0  0  0  0  0  0  0  0  0  0  0
   -6.3815    0.8092   -0.2691 H   0  0  0  0  0  0  0  0  0  0  0  0
   -0.8057    1.5212    2.5468 H   0  0  0  0  0  0  0  0  0  0  0  0
   -0.3128   -0.0967    2.0293 H   0  0  0  0  0  0  0  0  0  0  0  0
    1.1838    3.3009    2.8067 H   0  0  0  0  0  0  0  0  0  0  0  0
    3.4654    3.5542    3.7223 H   0  0  0  0  0  0  0  0  0  0  0  0
    4.9166    1.5568    4.0472 H   0  0  0  0  0  0  0  0  0  0  0  0
    4.0621   -0.7001    3.4272 H   0  0  0  0  0  0  0  0  0  0  0  0
    1.7759   -0.9436    2.4805 H   0  0  0  0  0  0  0  0  0  0  0  0
   -0.6148    3.3862    1.2559 H   0  0  0  0  0  0  0  0  0  0  0  0
    0.8930    3.2903    0.3143 H   0  0  0  0  0  0  0  0  0  0  0  0
   -2.7369    3.7728    0.2636 H   0  0  0  0  0  0  0  0  0  0  0  0
   -4.0437    4.5737   -1.6898 H   0  0  0  0  0  0  0  0  0  0  0  0
   -2.9592    4.7454   -3.9272 H   0  0  0  0  0  0  0  0  0  0  0  0
   -0.5586    4.1424   -4.1802 H   0  0  0  0  0  0  0  0  0  0  0  0
    0.7390    3.3258   -2.2158 H   0  0  0  0  0  0  0  0  0  0  0  0
  1  2  1  0  0  0  0
  1  5  1  0  0  0  0
  2  3  2  0  0  0  0
  2  6  1  0  0  0  0
  3  4  1  0  0  0  0
  4  5  1  0  0  0  0
  4 14  1  0  0  0  0
  4 50  1  6  0  0  0
  5 15  1  0  0  0  0
  5 51  1  6  0  0  0
  6 10  1  0  0  0  0
  6 36  1  0  0  0  0
  6 43  1  0  0  0  0
  7  8  1  0  0  0  0
  7 11  1  0  0  0  0
  7 12  1  0  0  0  0
  7 52  1  6  0  0  0
  8  9  1  0  0  0  0
  8 13  1  0  0  0  0
  8 53  1  6  0  0  0
  9 10  2  0  0  0  0
 10 11  1  0  0  0  0
 12 31  2  0  0  0  0
 12 35  1  0  0  0  0
 13 26  2  0  0  0  0
 13 30  1  0  0  0  0
 14 21  2  0  0  0  0
 14 25  1  0  0  0  0
 15 16  2  0  0  0  0
 15 20  1  0  0  0  0
 16 17  1  0  0  0  0
 16 54  1  0  0  0  0
 17 18  2  0  0  0  0
 17 55  1  0  0  0  0
 18 19  1  0  0  0  0
 18 56  1  0  0  0  0
 19 20  2  0  0  0  0
 19 57  1  0  0  0  0
 20 58  1  0  0  0  0
 21 22  1  0  0  0  0
 21 59  1  0  0  0  0
 22 23  2  0  0  0  0
 22 60  1  0  0  0  0
 23 24  1  0  0  0  0
 23 61  1  0  0  0  0
 24 25  2  0  0  0  0
 24 62  1  0  0  0  0
 25 63  1  0  0  0  0
 26 27  1  0  0  0  0
 26 64  1  0  0  0  0
 27 28  2  0  0  0  0
 27 65  1  0  0  0  0
 28 29  1  0  0  0  0
 28 66  1  0  0  0  0
 29 30  2  0  0  0  0
 29 67  1  0  0  0  0
 30 68  1  0  0  0  0
 31 32  1  0  0  0  0
 31 69  1  0  0  0  0
 32 33  2  0  0  0  0
 32 70  1  0  0  0  0
 33 34  1  0  0  0  0
 33 71  1  0  0  0  0
 34 35  2  0  0  0  0
 34 72  1  0  0  0  0
 35 73  1  0  0  0  0
 36 37  1  0  0  0  0
 36 74  1  0  0  0  0
 36 75  1  0  0  0  0
 37 38  2  0  0  0  0
 37 42  1  0  0  0  0
 38 39  1  0  0  0  0
 38 76  1  0  0  0  0
 39 40  2  0  0  0  0
 39 77  1  0  0  0  0
 40 41  1  0  0  0  0
 40 78  1  0  0  0  0
 41 42  2  0  0  0  0
 41 79  1  0  0  0  0
 42 80  1  0  0  0  0
 43 44  1  0  0  0  0
 43 81  1  0  0  0  0
 43 82  1  0  0  0  0
 44 45  2  0  0  0  0
 44 49  1  0  0  0  0
 45 46  1  0  0  0  0
 45 83  1  0  0  0  0
 46 47  2  0  0  0  0
 46 84  1  0  0  0  0
 47 48  1  0  0  0  0
 47 85  1  0  0  0  0
 48 49  2  0  0  0  0
 48 86  1  0  0  0  0
 49 87  1  0  0  0  0
M  END
$$$$
