Title Card Required
 OpenBabel03192317473D

 39 42  0  0  1  0  0  0  0  0999 V2000
    0.1988   -2.3829   -0.1780 N   0  0  0  0  0  0  0  0  0  0  0  0
    0.3620   -0.9840   -0.5461 C   0  0  2  0  0  0  0  0  0  0  0  0
    1.8875   -0.7747   -0.4273 C   0  0  0  0  0  0  0  0  0  0  0  0
    2.4946   -2.1957   -0.4948 C   0  0  0  0  0  0  0  0  0  0  0  0
    1.2935   -3.0897   -0.8207 C   0  0  0  0  0  0  0  0  0  0  0  0
   -0.4681   -0.0700    0.3657 C   0  0  0  0  0  0  0  0  0  0  0  0
   -0.2410    1.4115    0.1242 C   0  0  0  0  0  0  0  0  0  0  0  0
    0.1479    1.9327   -1.1148 C   0  0  0  0  0  0  0  0  0  0  0  0
    0.3142    3.3075   -1.2932 C   0  0  0  0  0  0  0  0  0  0  0  0
    0.0922    4.1850   -0.2352 C   0  0  0  0  0  0  0  0  0  0  0  0
   -0.2989    3.6786    1.0047 C   0  0  0  0  0  0  0  0  0  0  0  0
   -0.4633    2.3073    1.1779 C   0  0  0  0  0  0  0  0  0  0  0  0
   -1.9401   -0.4464    0.2922 C   0  0  0  0  0  0  0  0  0  0  0  0
   -2.4664   -1.3724    1.2010 C   0  0  0  0  0  0  0  0  0  0  0  0
   -3.7969   -1.7799    1.1149 C   0  0  0  0  0  0  0  0  0  0  0  0
   -4.6219   -1.2674    0.1149 C   0  0  0  0  0  0  0  0  0  0  0  0
   -4.1074   -0.3449   -0.7960 C   0  0  0  0  0  0  0  0  0  0  0  0
   -2.7776    0.0634   -0.7063 C   0  0  0  0  0  0  0  0  0  0  0  0
   -0.7191   -2.7422   -0.4305 H   0  0  0  0  0  0  0  0  0  0  0  0
    0.0536   -0.8115   -1.6003 H   0  0  0  0  0  0  0  0  0  0  0  0
    2.2520   -0.1154   -1.2293 H   0  0  0  0  0  0  0  0  0  0  0  0
    2.1216   -0.2885    0.5321 H   0  0  0  0  0  0  0  0  0  0  0  0
    3.2987   -2.2868   -1.2371 H   0  0  0  0  0  0  0  0  0  0  0  0
    2.9158   -2.4706    0.4808 H   0  0  0  0  0  0  0  0  0  0  0  0
    1.1678   -3.1629   -1.9214 H   0  0  0  0  0  0  0  0  0  0  0  0
    1.3979   -4.1094   -0.4242 H   0  0  0  0  0  0  0  0  0  0  0  0
   -0.1277   -0.2970    1.3889 H   0  0  0  0  0  0  0  0  0  0  0  0
    0.3271    1.2634   -1.9583 H   0  0  0  0  0  0  0  0  0  0  0  0
    0.6208    3.6916   -2.2676 H   0  0  0  0  0  0  0  0  0  0  0  0
    0.2241    5.2590   -0.3744 H   0  0  0  0  0  0  0  0  0  0  0  0
   -0.4751    4.3566    1.8414 H   0  0  0  0  0  0  0  0  0  0  0  0
   -0.7756    1.9152    2.1491 H   0  0  0  0  0  0  0  0  0  0  0  0
   -1.8149   -1.7832    1.9753 H   0  0  0  0  0  0  0  0  0  0  0  0
   -4.1914   -2.4995    1.8345 H   0  0  0  0  0  0  0  0  0  0  0  0
   -5.6643   -1.5826    0.0477 H   0  0  0  0  0  0  0  0  0  0  0  0
   -4.7484    0.0648   -1.5784 H   0  0  0  0  0  0  0  0  0  0  0  0
   -2.3860    0.7988   -1.4132 H   0  0  0  0  0  0  0  0  0  0  0  0
    4.2892    0.1048   -0.0930 H   0  0  0  0  0  0  0  0  0  0  0  0
    5.1988   -0.3522    0.6916 Cl  0  0  0  0  0  0  0  0  0  0  0  0
  1  2  1  0  0  0  0
  1  5  1  0  0  0  0
  1 19  1  0  0  0  0
  2  3  1  0  0  0  0
  2  6  1  0  0  0  0
  2 20  1  6  0  0  0
  3  4  1  0  0  0  0
  3 21  1  0  0  0  0
  3 22  1  0  0  0  0
  4  5  1  0  0  0  0
  4 23  1  0  0  0  0
  4 24  1  0  0  0  0
  5 25  1  0  0  0  0
  5 26  1  0  0  0  0
  6  7  1  0  0  0  0
  6 13  1  0  0  0  0
  6 27  1  0  0  0  0
  7  8  2  0  0  0  0
  7 12  1  0  0  0  0
  8  9  1  0  0  0  0
  8 28  1  0  0  0  0
  9 10  2  0  0  0  0
  9 29  1  0  0  0  0
 10 11  1  0  0  0  0
 10 30  1  0  0  0  0
 11 12  2  0  0  0  0
 11 31  1  0  0  0  0
 12 32  1  0  0  0  0
 13 14  2  0  0  0  0
 13 18  1  0  0  0  0
 14 15  1  0  0  0  0
 14 33  1  0  0  0  0
 15 16  2  0  0  0  0
 15 34  1  0  0  0  0
 16 17  1  0  0  0  0
 16 35  1  0  0  0  0
 17 18  2  0  0  0  0
 17 36  1  0  0  0  0
 18 37  1  0  0  0  0
 21 38  1  0  0  0  0
 23 38  1  0  0  0  0
 38 39  1  0  0  0  0
M  END
$$$$
