Title Card Required
 OpenBabel03192317533D

 76 82  0  0  1  0  0  0  0  0999 V2000
    1.1687   -3.4401   -1.8987 C   0  0  0  0  0  0  0  0  0  0  0  0
   -0.1137   -3.0295   -1.5545 C   0  0  0  0  0  0  0  0  0  0  0  0
   -0.3296   -1.8210   -0.8776 C   0  0  0  0  0  0  0  0  0  0  0  0
    0.7657   -1.0345   -0.4694 C   0  0  0  0  0  0  0  0  0  0  0  0
    2.0531   -1.4689   -0.8291 C   0  0  0  0  0  0  0  0  0  0  0  0
    2.2570   -2.6427   -1.5473 C   0  0  0  0  0  0  0  0  0  0  0  0
    0.8343    0.4551    0.6461 P   0  0  1  0  0  0  0  0  0  0  0  0
    0.8462    1.8499   -0.5873 C   0  0  0  0  0  0  0  0  0  0  0  0
    1.9743    2.6855   -0.7272 C   0  0  0  0  0  0  0  0  0  0  0  0
    1.9202    3.8105   -1.5622 C   0  0  0  0  0  0  0  0  0  0  0  0
    0.7757    4.0901   -2.2988 C   0  0  0  0  0  0  0  0  0  0  0  0
   -0.3239    3.2384   -2.2083 C   0  0  0  0  0  0  0  0  0  0  0  0
   -0.2891    2.1343   -1.3586 C   0  0  0  0  0  0  0  0  0  0  0  0
   -1.7449   -1.4550   -0.6379 C   0  0  0  0  0  0  0  0  0  0  0  0
    3.2748    2.3973   -0.0839 C   0  0  0  0  0  0  0  0  0  0  0  0
   -2.4804   -2.4026   -0.0063 O   0  0  0  0  0  0  0  0  0  0  0  0
   -3.8208   -1.9076    0.0329 C   0  0  0  0  0  0  0  0  0  0  0  0
   -3.6712   -0.4357   -0.4003 C   0  0  1  0  0  0  0  0  0  0  0  0
   -2.3231   -0.3745   -0.9610 N   0  0  0  0  0  0  0  0  0  0  0  0
    3.7474    1.2508    0.1841 N   0  0  0  0  0  0  0  0  0  0  0  0
    5.0584    1.4496    0.7980 C   0  0  2  0  0  0  0  0  0  0  0  0
    5.3233    2.9583    0.5945 C   0  0  0  0  0  0  0  0  0  0  0  0
    4.0564    3.4741    0.1848 O   0  0  0  0  0  0  0  0  0  0  0  0
   -0.8153    0.5938    1.4523 C   0  0  0  0  0  0  0  0  0  0  0  0
   -1.2828   -0.5211    2.1679 C   0  0  0  0  0  0  0  0  0  0  0  0
   -2.4204   -0.4354    2.9664 C   0  0  0  0  0  0  0  0  0  0  0  0
   -3.1013    0.7776    3.0939 C   0  0  0  0  0  0  0  0  0  0  0  0
   -2.6325    1.8963    2.4077 C   0  0  0  0  0  0  0  0  0  0  0  0
   -1.5018    1.8066    1.5923 C   0  0  0  0  0  0  0  0  0  0  0  0
   -4.7432    0.0409   -1.3765 C   0  0  0  0  0  0  0  0  0  0  0  0
   -6.1224   -0.0615   -0.7723 C   0  0  0  0  0  0  0  0  0  0  0  0
   -6.4778    0.7405    0.3212 C   0  0  0  0  0  0  0  0  0  0  0  0
   -7.7314    0.6215    0.9160 C   0  0  0  0  0  0  0  0  0  0  0  0
   -8.6537   -0.3063    0.4290 C   0  0  0  0  0  0  0  0  0  0  0  0
   -8.3124   -1.1097   -0.6564 C   0  0  0  0  0  0  0  0  0  0  0  0
   -7.0555   -0.9870   -1.2498 C   0  0  0  0  0  0  0  0  0  0  0  0
    6.1181    0.5556    0.1726 C   0  0  0  0  0  0  0  0  0  0  0  0
    5.9259   -0.9340    0.3697 C   0  0  0  0  0  0  0  0  0  0  0  0
    6.8257   -1.8127   -0.2494 C   0  0  0  0  0  0  0  0  0  0  0  0
    6.7049   -3.1908   -0.1001 C   0  0  0  0  0  0  0  0  0  0  0  0
    5.6723   -3.7210    0.6754 C   0  0  0  0  0  0  0  0  0  0  0  0
    4.7700   -2.8594    1.2927 C   0  0  0  0  0  0  0  0  0  0  0  0
    4.8943   -1.4765    1.1423 C   0  0  0  0  0  0  0  0  0  0  0  0
    1.3168   -4.3785   -2.4348 H   0  0  0  0  0  0  0  0  0  0  0  0
   -0.9795   -3.6386   -1.8199 H   0  0  0  0  0  0  0  0  0  0  0  0
    2.9101   -0.8645   -0.5239 H   0  0  0  0  0  0  0  0  0  0  0  0
    3.2755   -2.9434   -1.8016 H   0  0  0  0  0  0  0  0  0  0  0  0
    2.7987    4.4521   -1.6317 H   0  0  0  0  0  0  0  0  0  0  0  0
    0.7485    4.9635   -2.9520 H   0  0  0  0  0  0  0  0  0  0  0  0
   -1.2198    3.4336   -2.8003 H   0  0  0  0  0  0  0  0  0  0  0  0
   -1.1523    1.4665   -1.2910 H   0  0  0  0  0  0  0  0  0  0  0  0
   -4.2208   -2.0329    1.0468 H   0  0  0  0  0  0  0  0  0  0  0  0
   -4.4365   -2.4896   -0.6741 H   0  0  0  0  0  0  0  0  0  0  0  0
   -3.6808    0.2239    0.4846 H   0  0  0  0  0  0  0  0  0  0  0  0
    4.9768    1.2106    1.8728 H   0  0  0  0  0  0  0  0  0  0  0  0
    5.6425    3.4838    1.5024 H   0  0  0  0  0  0  0  0  0  0  0  0
    6.0570    3.1419   -0.2079 H   0  0  0  0  0  0  0  0  0  0  0  0
   -0.7548   -1.4759    2.0909 H   0  0  0  0  0  0  0  0  0  0  0  0
   -2.7684   -1.3199    3.5033 H   0  0  0  0  0  0  0  0  0  0  0  0
   -3.9861    0.8479    3.7285 H   0  0  0  0  0  0  0  0  0  0  0  0
   -3.1475    2.8540    2.5058 H   0  0  0  0  0  0  0  0  0  0  0  0
   -1.1515    2.6967    1.0668 H   0  0  0  0  0  0  0  0  0  0  0  0
   -4.5176    1.0818   -1.6539 H   0  0  0  0  0  0  0  0  0  0  0  0
   -4.6829   -0.5632   -2.2949 H   0  0  0  0  0  0  0  0  0  0  0  0
   -5.7598    1.4688    0.7086 H   0  0  0  0  0  0  0  0  0  0  0  0
   -7.9926    1.2564    1.7644 H   0  0  0  0  0  0  0  0  0  0  0  0
   -9.6360   -0.4008    0.8945 H   0  0  0  0  0  0  0  0  0  0  0  0
   -9.0274   -1.8362   -1.0462 H   0  0  0  0  0  0  0  0  0  0  0  0
   -6.7943   -1.6165   -2.1040 H   0  0  0  0  0  0  0  0  0  0  0  0
    6.1500    0.7722   -0.9085 H   0  0  0  0  0  0  0  0  0  0  0  0
    7.1042    0.8433    0.5766 H   0  0  0  0  0  0  0  0  0  0  0  0
    7.6346   -1.4035   -0.8604 H   0  0  0  0  0  0  0  0  0  0  0  0
    7.4181   -3.8552   -0.5911 H   0  0  0  0  0  0  0  0  0  0  0  0
    5.5713   -4.8009    0.7935 H   0  0  0  0  0  0  0  0  0  0  0  0
    3.9501   -3.2608    1.8906 H   0  0  0  0  0  0  0  0  0  0  0  0
    4.1529   -0.8255    1.6087 H   0  0  0  0  0  0  0  0  0  0  0  0
  1  2  2  0  0  0  0
  1  6  1  0  0  0  0
  1 44  1  0  0  0  0
  2  3  1  0  0  0  0
  2 45  1  0  0  0  0
  3  4  2  0  0  0  0
  3 14  1  0  0  0  0
  4  5  1  0  0  0  0
  5  6  2  0  0  0  0
  5 46  1  0  0  0  0
  6 47  1  0  0  0  0
  7  4  1  6  0  0  0
  7  8  1  0  0  0  0
  7 24  1  0  0  0  0
  8  9  2  0  0  0  0
  8 13  1  0  0  0  0
  9 10  1  0  0  0  0
  9 15  1  0  0  0  0
 10 11  2  0  0  0  0
 10 48  1  0  0  0  0
 11 12  1  0  0  0  0
 11 49  1  0  0  0  0
 12 13  2  0  0  0  0
 12 50  1  0  0  0  0
 13 51  1  0  0  0  0
 14 16  1  0  0  0  0
 14 19  2  0  0  0  0
 15 20  2  0  0  0  0
 15 23  1  0  0  0  0
 16 17  1  0  0  0  0
 17 18  1  0  0  0  0
 17 52  1  0  0  0  0
 17 53  1  0  0  0  0
 18 19  1  0  0  0  0
 18 30  1  0  0  0  0
 18 54  1  1  0  0  0
 20 21  1  0  0  0  0
 21 22  1  0  0  0  0
 21 37  1  0  0  0  0
 21 55  1  1  0  0  0
 22 23  1  0  0  0  0
 22 56  1  0  0  0  0
 22 57  1  0  0  0  0
 24 25  2  0  0  0  0
 24 29  1  0  0  0  0
 25 26  1  0  0  0  0
 25 58  1  0  0  0  0
 26 27  2  0  0  0  0
 26 59  1  0  0  0  0
 27 28  1  0  0  0  0
 27 60  1  0  0  0  0
 28 29  2  0  0  0  0
 28 61  1  0  0  0  0
 29 62  1  0  0  0  0
 30 31  1  0  0  0  0
 30 63  1  0  0  0  0
 30 64  1  0  0  0  0
 31 32  2  0  0  0  0
 31 36  1  0  0  0  0
 32 33  1  0  0  0  0
 32 65  1  0  0  0  0
 33 34  2  0  0  0  0
 33 66  1  0  0  0  0
 34 35  1  0  0  0  0
 34 67  1  0  0  0  0
 35 36  2  0  0  0  0
 35 68  1  0  0  0  0
 36 69  1  0  0  0  0
 37 38  1  0  0  0  0
 37 70  1  0  0  0  0
 37 71  1  0  0  0  0
 38 39  2  0  0  0  0
 38 43  1  0  0  0  0
 39 40  1  0  0  0  0
 39 72  1  0  0  0  0
 40 41  2  0  0  0  0
 40 73  1  0  0  0  0
 41 42  1  0  0  0  0
 41 74  1  0  0  0  0
 42 43  2  0  0  0  0
 42 75  1  0  0  0  0
 43 76  1  0  0  0  0
M  END
$$$$
