Title Card Required
 OpenBabel03192317423D

 76 79  0  0  1  0  0  0  0  0999 V2000
   -0.9348    1.4835   -0.7069 C   0  0  1  0  0  3  0  0  0  0  0  0
   -0.7311    2.7396   -0.7189 N   0  0  0  0  0  2  0  0  0  0  0  0
    0.5001    2.9623   -1.4868 C   0  0  2  0  0  0  0  0  0  0  0  0
    1.1532    1.5693   -1.5961 C   0  0  0  0  0  0  0  0  0  0  0  0
    0.0130    0.6977   -1.3548 N   0  0  0  0  0  0  0  0  0  0  0  0
   -2.0631    0.8554    0.0388 C   0  0  1  0  0  3  0  0  0  0  0  0
   -3.2854    1.0318   -0.2655 N   0  0  0  0  0  2  0  0  0  0  0  0
   -4.0760    0.2371    0.6819 C   0  0  2  0  0  0  0  0  0  0  0  0
   -3.0589   -0.7188    1.3437 C   0  0  0  0  0  0  0  0  0  0  0  0
   -1.8070   -0.0190    1.0903 N   0  0  0  0  0  0  0  0  0  0  0  0
   -0.5577   -0.4505    1.5558 C   0  0  0  0  0  0  0  0  0  0  0  0
    0.5051    0.4586    1.6829 C   0  0  0  0  0  0  0  0  0  0  0  0
    1.7741    0.0357    2.0765 C   0  0  0  0  0  0  0  0  0  0  0  0
    1.9658   -1.3139    2.4011 C   0  0  0  0  0  0  0  0  0  0  0  0
    0.9035   -2.2096    2.3241 C   0  0  0  0  0  0  0  0  0  0  0  0
   -0.3556   -1.7922    1.8989 C   0  0  0  0  0  0  0  0  0  0  0  0
    2.9105    1.0359    2.1892 C   0  0  0  0  0  0  0  0  0  0  0  0
    3.3266    1.2373    3.6491 C   0  0  0  0  0  0  0  0  0  0  0  0
    4.1108    0.6316    1.3292 C   0  0  0  0  0  0  0  0  0  0  0  0
    0.0732   -0.6985   -1.4314 C   0  0  0  0  0  0  0  0  0  0  0  0
   -1.0974   -1.4627   -1.5760 C   0  0  0  0  0  0  0  0  0  0  0  0
   -1.0097   -2.8484   -1.6077 C   0  0  0  0  0  0  0  0  0  0  0  0
    0.2291   -3.4898   -1.5473 C   0  0  0  0  0  0  0  0  0  0  0  0
    1.4047   -2.7416   -1.4608 C   0  0  0  0  0  0  0  0  0  0  0  0
    1.3132   -1.3469   -1.3929 C   0  0  0  0  0  0  0  0  0  0  0  0
   -5.2534   -0.4667    0.0091 C   0  0  0  0  0  0  0  0  0  0  0  0
   -6.0308   -1.3012    1.0247 C   0  0  0  0  0  0  0  0  0  0  0  0
   -6.1557    0.5438   -0.6916 C   0  0  0  0  0  0  0  0  0  0  0  0
    1.3925    4.0220   -0.8417 C   0  0  0  0  0  0  0  0  0  0  0  0
    2.7049    4.1649   -1.6090 C   0  0  0  0  0  0  0  0  0  0  0  0
    0.6558    5.3532   -0.7373 C   0  0  0  0  0  0  0  0  0  0  0  0
    2.7628   -3.4200   -1.4649 C   0  0  0  0  0  0  0  0  0  0  0  0
    3.5928   -2.9907   -2.6784 C   0  0  0  0  0  0  0  0  0  0  0  0
    3.5278   -3.1769   -0.1623 C   0  0  0  0  0  0  0  0  0  0  0  0
    0.2067    3.3246   -2.4917 H   0  0  0  0  0  0  0  0  0  0  0  0
    1.6173    1.3609   -2.5698 H   0  0  0  0  0  0  0  0  0  0  0  0
    1.9140    1.4328   -0.7998 H   0  0  0  0  0  0  0  0  0  0  0  0
   -4.4834    0.9368    1.4383 H   0  0  0  0  0  0  0  0  0  0  0  0
   -3.2169   -0.8725    2.4198 H   0  0  0  0  0  0  0  0  0  0  0  0
   -3.0644   -1.7058    0.8379 H   0  0  0  0  0  0  0  0  0  0  0  0
    0.3291    1.5163    1.4759 H   0  0  0  0  0  0  0  0  0  0  0  0
    2.9479   -1.6662    2.7243 H   0  0  0  0  0  0  0  0  0  0  0  0
    1.0566   -3.2587    2.5848 H   0  0  0  0  0  0  0  0  0  0  0  0
   -1.1691   -2.5117    1.8084 H   0  0  0  0  0  0  0  0  0  0  0  0
    2.5299    1.9986    1.8086 H   0  0  0  0  0  0  0  0  0  0  0  0
    3.7194    0.2998    4.0723 H   0  0  0  0  0  0  0  0  0  0  0  0
    4.1139    2.0013    3.7303 H   0  0  0  0  0  0  0  0  0  0  0  0
    2.4715    1.5517    4.2635 H   0  0  0  0  0  0  0  0  0  0  0  0
    3.8216    0.4911    0.2764 H   0  0  0  0  0  0  0  0  0  0  0  0
    4.8957    1.4013    1.3702 H   0  0  0  0  0  0  0  0  0  0  0  0
    4.5508   -0.3128    1.6849 H   0  0  0  0  0  0  0  0  0  0  0  0
   -2.0616   -0.9649   -1.6855 H   0  0  0  0  0  0  0  0  0  0  0  0
   -1.9227   -3.4381   -1.7121 H   0  0  0  0  0  0  0  0  0  0  0  0
    0.2852   -4.5792   -1.5959 H   0  0  0  0  0  0  0  0  0  0  0  0
    2.2250   -0.7538   -1.2987 H   0  0  0  0  0  0  0  0  0  0  0  0
   -4.8263   -1.1436   -0.7536 H   0  0  0  0  0  0  0  0  0  0  0  0
   -6.4381   -0.6552    1.8192 H   0  0  0  0  0  0  0  0  0  0  0  0
   -6.8765   -1.8139    0.5443 H   0  0  0  0  0  0  0  0  0  0  0  0
   -5.4021   -2.0689    1.5007 H   0  0  0  0  0  0  0  0  0  0  0  0
   -5.5800    1.1427   -1.4082 H   0  0  0  0  0  0  0  0  0  0  0  0
   -6.9753    0.0373   -1.2217 H   0  0  0  0  0  0  0  0  0  0  0  0
   -6.6023    1.2323    0.0439 H   0  0  0  0  0  0  0  0  0  0  0  0
    1.6164    3.6631    0.1799 H   0  0  0  0  0  0  0  0  0  0  0  0
    2.5092    4.4563   -2.6537 H   0  0  0  0  0  0  0  0  0  0  0  0
    3.3387    4.9421   -1.1585 H   0  0  0  0  0  0  0  0  0  0  0  0
    3.2838    3.2287   -1.6205 H   0  0  0  0  0  0  0  0  0  0  0  0
   -0.3039    5.2214   -0.2217 H   0  0  0  0  0  0  0  0  0  0  0  0
    1.2579    6.0948   -0.1927 H   0  0  0  0  0  0  0  0  0  0  0  0
    0.4515    5.7565   -1.7422 H   0  0  0  0  0  0  0  0  0  0  0  0
    2.5777   -4.5030   -1.5509 H   0  0  0  0  0  0  0  0  0  0  0  0
    3.8354   -1.9178   -2.6289 H   0  0  0  0  0  0  0  0  0  0  0  0
    4.5415   -3.5462   -2.7152 H   0  0  0  0  0  0  0  0  0  0  0  0
    3.0484   -3.1704   -3.6161 H   0  0  0  0  0  0  0  0  0  0  0  0
    2.9584   -3.5414    0.7037 H   0  0  0  0  0  0  0  0  0  0  0  0
    4.5018   -3.6884   -0.1843 H   0  0  0  0  0  0  0  0  0  0  0  0
    3.7096   -2.1017   -0.0071 H   0  0  0  0  0  0  0  0  0  0  0  0
  1  2  1  1  0  0  0
  1  5  1  0  0  0  0
  1  6  1  0  0  0  0
  2  3  1  0  0  0  0
  3  4  1  0  0  0  0
  3 29  1  0  0  0  0
  3 35  1  6  0  0  0
  4  5  1  0  0  0  0
  4 36  1  0  0  0  0
  4 37  1  0  0  0  0
  5 20  1  0  0  0  0
  6  7  1  6  0  0  0
  6 10  1  0  0  0  0
  7  8  1  0  0  0  0
  8  9  1  0  0  0  0
  8 26  1  0  0  0  0
  8 38  1  1  0  0  0
  9 10  1  0  0  0  0
  9 39  1  0  0  0  0
  9 40  1  0  0  0  0
 10 11  1  0  0  0  0
 11 12  2  0  0  0  0
 11 16  1  0  0  0  0
 12 13  1  0  0  0  0
 12 41  1  0  0  0  0
 13 14  2  0  0  0  0
 13 17  1  0  0  0  0
 14 15  1  0  0  0  0
 14 42  1  0  0  0  0
 15 16  2  0  0  0  0
 15 43  1  0  0  0  0
 16 44  1  0  0  0  0
 17 18  1  0  0  0  0
 17 19  1  0  0  0  0
 17 45  1  0  0  0  0
 18 46  1  0  0  0  0
 18 47  1  0  0  0  0
 18 48  1  0  0  0  0
 19 49  1  0  0  0  0
 19 50  1  0  0  0  0
 19 51  1  0  0  0  0
 20 21  2  0  0  0  0
 20 25  1  0  0  0  0
 21 22  1  0  0  0  0
 21 52  1  0  0  0  0
 22 23  2  0  0  0  0
 22 53  1  0  0  0  0
 23 24  1  0  0  0  0
 23 54  1  0  0  0  0
 24 25  2  0  0  0  0
 24 32  1  0  0  0  0
 25 55  1  0  0  0  0
 26 27  1  0  0  0  0
 26 28  1  0  0  0  0
 26 56  1  0  0  0  0
 27 57  1  0  0  0  0
 27 58  1  0  0  0  0
 27 59  1  0  0  0  0
 28 60  1  0  0  0  0
 28 61  1  0  0  0  0
 28 62  1  0  0  0  0
 29 30  1  0  0  0  0
 29 31  1  0  0  0  0
 29 63  1  0  0  0  0
 30 64  1  0  0  0  0
 30 65  1  0  0  0  0
 30 66  1  0  0  0  0
 31 67  1  0  0  0  0
 31 68  1  0  0  0  0
 31 69  1  0  0  0  0
 32 33  1  0  0  0  0
 32 34  1  0  0  0  0
 32 70  1  0  0  0  0
 33 71  1  0  0  0  0
 33 72  1  0  0  0  0
 33 73  1  0  0  0  0
 34 74  1  0  0  0  0
 34 75  1  0  0  0  0
 34 76  1  0  0  0  0
M  END
$$$$
