Title Card Required
 OpenBabel03192317433D

 64 67  0  0  1  0  0  0  0  0999 V2000
   -1.1069    1.2332    0.2010 C   0  0  1  0  0  3  0  0  0  0  0  0
   -2.1391    1.9174   -0.0874 N   0  0  0  0  0  2  0  0  0  0  0  0
   -3.2520    1.3504    0.6841 C   0  0  2  0  0  0  0  0  0  0  0  0
   -2.7348   -0.0184    1.1764 C   0  0  0  0  0  0  0  0  0  0  0  0
   -1.2938    0.1747    1.0876 N   0  0  0  0  0  0  0  0  0  0  0  0
    0.2342    1.4741   -0.4072 C   0  0  1  0  0  3  0  0  0  0  0  0
    0.9215    2.5210   -0.1835 N   0  0  0  0  0  2  0  0  0  0  0  0
    2.1955    2.3490   -0.8932 C   0  0  2  0  0  0  0  0  0  0  0  0
    2.2497    0.8472   -1.2458 C   0  0  0  0  0  0  0  0  0  0  0  0
    0.8381    0.4936   -1.1893 N   0  0  0  0  0  0  0  0  0  0  0  0
    3.3820    2.8429   -0.0667 C   0  0  0  0  0  0  0  0  0  0  0  0
    4.6969    2.5806   -0.7978 C   0  0  0  0  0  0  0  0  0  0  0  0
    3.2182    4.3192    0.2793 C   0  0  0  0  0  0  0  0  0  0  0  0
   -4.5409    1.2787   -0.1335 C   0  0  0  0  0  0  0  0  0  0  0  0
   -5.6563    0.6192    0.6744 C   0  0  0  0  0  0  0  0  0  0  0  0
   -4.9471    2.6673   -0.6168 C   0  0  0  0  0  0  0  0  0  0  0  0
    0.3353   -0.7859   -1.4687 C   0  0  0  0  0  0  0  0  0  0  0  0
   -0.3533   -0.7954    1.4602 C   0  0  0  0  0  0  0  0  0  0  0  0
   -1.0112   -0.9501   -1.8329 C   0  0  0  0  0  0  0  0  0  0  0  0
   -1.5143   -2.2292   -2.0353 C   0  0  0  0  0  0  0  0  0  0  0  0
   -0.6901   -3.3493   -1.9103 C   0  0  0  0  0  0  0  0  0  0  0  0
    0.6600   -3.1959   -1.5882 C   0  0  0  0  0  0  0  0  0  0  0  0
    1.1626   -1.9084   -1.3736 C   0  0  0  0  0  0  0  0  0  0  0  0
    0.9676   -0.4220    1.7591 C   0  0  0  0  0  0  0  0  0  0  0  0
    1.9377   -1.3797    2.0496 C   0  0  0  0  0  0  0  0  0  0  0  0
    1.5652   -2.7306    2.0921 C   0  0  0  0  0  0  0  0  0  0  0  0
    0.2458   -3.0997    1.8504 C   0  0  0  0  0  0  0  0  0  0  0  0
   -0.7171   -2.1442    1.5327 C   0  0  0  0  0  0  0  0  0  0  0  0
    1.5707   -4.3850   -1.4331 C   0  0  0  0  0  0  0  0  0  0  0  0
    3.3640   -0.9712    2.3148 C   0  0  0  0  0  0  0  0  0  0  0  0
   -3.4320    2.0195    1.5484 H   0  0  0  0  0  0  0  0  0  0  0  0
   -3.0393   -0.2753    2.2001 H   0  0  0  0  0  0  0  0  0  0  0  0
   -3.0615   -0.8279    0.4921 H   0  0  0  0  0  0  0  0  0  0  0  0
    2.1470    2.9537   -1.8202 H   0  0  0  0  0  0  0  0  0  0  0  0
    2.6775    0.6284   -2.2335 H   0  0  0  0  0  0  0  0  0  0  0  0
    2.8205    0.2888   -0.4749 H   0  0  0  0  0  0  0  0  0  0  0  0
    3.3761    2.2595    0.8723 H   0  0  0  0  0  0  0  0  0  0  0  0
    4.7086    3.1060   -1.7663 H   0  0  0  0  0  0  0  0  0  0  0  0
    5.5510    2.9455   -0.2094 H   0  0  0  0  0  0  0  0  0  0  0  0
    4.8592    1.5092   -0.9907 H   0  0  0  0  0  0  0  0  0  0  0  0
    2.2546    4.4926    0.7746 H   0  0  0  0  0  0  0  0  0  0  0  0
    4.0292    4.6612    0.9385 H   0  0  0  0  0  0  0  0  0  0  0  0
    3.2457    4.9313   -0.6365 H   0  0  0  0  0  0  0  0  0  0  0  0
   -4.3204    0.6497   -1.0155 H   0  0  0  0  0  0  0  0  0  0  0  0
   -5.8584    1.1949    1.5922 H   0  0  0  0  0  0  0  0  0  0  0  0
   -6.5888    0.5799    0.0933 H   0  0  0  0  0  0  0  0  0  0  0  0
   -5.4035   -0.4106    0.9691 H   0  0  0  0  0  0  0  0  0  0  0  0
   -4.1230    3.1402   -1.1655 H   0  0  0  0  0  0  0  0  0  0  0  0
   -5.8305    2.6144   -1.2694 H   0  0  0  0  0  0  0  0  0  0  0  0
   -5.1993    3.3112    0.2412 H   0  0  0  0  0  0  0  0  0  0  0  0
   -1.6453   -0.0717   -1.9606 H   0  0  0  0  0  0  0  0  0  0  0  0
   -2.5626   -2.3539   -2.3138 H   0  0  0  0  0  0  0  0  0  0  0  0
   -1.0962   -4.3491   -2.0758 H   0  0  0  0  0  0  0  0  0  0  0  0
    2.2099   -1.7879   -1.0886 H   0  0  0  0  0  0  0  0  0  0  0  0
    1.2310    0.6378    1.7644 H   0  0  0  0  0  0  0  0  0  0  0  0
    2.3126   -3.4903    2.3325 H   0  0  0  0  0  0  0  0  0  0  0  0
   -0.0413   -4.1523    1.8926 H   0  0  0  0  0  0  0  0  0  0  0  0
   -1.7389   -2.4510    1.3108 H   0  0  0  0  0  0  0  0  0  0  0  0
    2.4323   -4.3158   -2.1133 H   0  0  0  0  0  0  0  0  0  0  0  0
    1.9631   -4.4335   -0.4056 H   0  0  0  0  0  0  0  0  0  0  0  0
    1.0429   -5.3241   -1.6441 H   0  0  0  0  0  0  0  0  0  0  0  0
    3.7465   -1.4352    3.2351 H   0  0  0  0  0  0  0  0  0  0  0  0
    4.0222   -1.2910    1.4912 H   0  0  0  0  0  0  0  0  0  0  0  0
    3.4554    0.1186    2.4157 H   0  0  0  0  0  0  0  0  0  0  0  0
  1  2  1  6  0  0  0
  1  5  1  0  0  0  0
  1  6  1  0  0  0  0
  2  3  1  0  0  0  0
  3  4  1  0  0  0  0
  3 14  1  0  0  0  0
  3 31  1  1  0  0  0
  4  5  1  0  0  0  0
  4 32  1  0  0  0  0
  4 33  1  0  0  0  0
  5 18  1  0  0  0  0
  6  7  1  1  0  0  0
  6 10  1  0  0  0  0
  7  8  1  0  0  0  0
  8  9  1  0  0  0  0
  8 11  1  0  0  0  0
  8 34  1  6  0  0  0
  9 10  1  0  0  0  0
  9 35  1  0  0  0  0
  9 36  1  0  0  0  0
 10 17  1  0  0  0  0
 11 12  1  0  0  0  0
 11 13  1  0  0  0  0
 11 37  1  0  0  0  0
 12 38  1  0  0  0  0
 12 39  1  0  0  0  0
 12 40  1  0  0  0  0
 13 41  1  0  0  0  0
 13 42  1  0  0  0  0
 13 43  1  0  0  0  0
 14 15  1  0  0  0  0
 14 16  1  0  0  0  0
 14 44  1  0  0  0  0
 15 45  1  0  0  0  0
 15 46  1  0  0  0  0
 15 47  1  0  0  0  0
 16 48  1  0  0  0  0
 16 49  1  0  0  0  0
 16 50  1  0  0  0  0
 17 19  2  0  0  0  0
 17 23  1  0  0  0  0
 18 24  2  0  0  0  0
 18 28  1  0  0  0  0
 19 20  1  0  0  0  0
 19 51  1  0  0  0  0
 20 21  2  0  0  0  0
 20 52  1  0  0  0  0
 21 22  1  0  0  0  0
 21 53  1  0  0  0  0
 22 23  2  0  0  0  0
 22 29  1  0  0  0  0
 23 54  1  0  0  0  0
 24 25  1  0  0  0  0
 24 55  1  0  0  0  0
 25 26  2  0  0  0  0
 25 30  1  0  0  0  0
 26 27  1  0  0  0  0
 26 56  1  0  0  0  0
 27 28  2  0  0  0  0
 27 57  1  0  0  0  0
 28 58  1  0  0  0  0
 29 59  1  0  0  0  0
 29 60  1  0  0  0  0
 29 61  1  0  0  0  0
 30 62  1  0  0  0  0
 30 63  1  0  0  0  0
 30 64  1  0  0  0  0
M  END
$$$$
