Title Card Required
 OpenBabel03192317403D

 56 57  0  0  1  0  0  0  0  0999 V2000
   -0.6960    0.2693   -0.5170 C   0  0  1  0  0  3  0  0  0  0  0  0
   -1.6046   -0.1224   -1.3199 N   0  0  0  0  0  2  0  0  0  0  0  0
   -2.8365    0.5748   -0.9265 C   0  0  2  0  0  0  0  0  0  0  0  0
   -2.3810    1.6556    0.0912 C   0  0  0  0  0  0  0  0  0  0  0  0
   -1.0491    1.1839    0.4571 N   0  0  0  0  0  0  0  0  0  0  0  0
    0.6960   -0.2693   -0.5170 C   0  0  1  0  0  3  0  0  0  0  0  0
    1.6046    0.1224   -1.3199 N   0  0  0  0  0  2  0  0  0  0  0  0
    2.8365   -0.5748   -0.9265 C   0  0  2  0  0  0  0  0  0  0  0  0
    2.3810   -1.6556    0.0912 C   0  0  0  0  0  0  0  0  0  0  0  0
    1.0491   -1.1839    0.4571 N   0  0  0  0  0  0  0  0  0  0  0  0
    3.8587    0.4198   -0.3479 C   0  0  0  0  0  0  0  0  0  0  0  0
    5.1795   -0.2755   -0.0218 C   0  0  0  0  0  0  0  0  0  0  0  0
    4.0969    1.5788   -1.3126 C   0  0  0  0  0  0  0  0  0  0  0  0
   -3.8587   -0.4198   -0.3479 C   0  0  0  0  0  0  0  0  0  0  0  0
   -5.1795    0.2755   -0.0218 C   0  0  0  0  0  0  0  0  0  0  0  0
   -4.0969   -1.5788   -1.3126 C   0  0  0  0  0  0  0  0  0  0  0  0
    0.0613   -2.0786    1.0580 C   0  0  0  0  0  0  0  0  0  0  0  0
   -0.4534   -3.1250    0.0680 C   0  0  0  0  0  0  0  0  0  0  0  0
    0.6347   -2.7112    2.3202 C   0  0  0  0  0  0  0  0  0  0  0  0
   -0.0613    2.0786    1.0580 C   0  0  0  0  0  0  0  0  0  0  0  0
    0.4534    3.1250    0.0680 C   0  0  0  0  0  0  0  0  0  0  0  0
   -0.6347    2.7112    2.3202 C   0  0  0  0  0  0  0  0  0  0  0  0
   -3.2916    1.0342   -1.8203 H   0  0  0  0  0  0  0  0  0  0  0  0
   -2.3310    2.6570   -0.3727 H   0  0  0  0  0  0  0  0  0  0  0  0
   -3.0379    1.7186    0.9710 H   0  0  0  0  0  0  0  0  0  0  0  0
    3.2917   -1.0342   -1.8203 H   0  0  0  0  0  0  0  0  0  0  0  0
    2.3310   -2.6570   -0.3727 H   0  0  0  0  0  0  0  0  0  0  0  0
    3.0379   -1.7186    0.9710 H   0  0  0  0  0  0  0  0  0  0  0  0
    3.4235    0.8204    0.5875 H   0  0  0  0  0  0  0  0  0  0  0  0
    5.6262   -0.6913   -0.9394 H   0  0  0  0  0  0  0  0  0  0  0  0
    5.8989    0.4383    0.4046 H   0  0  0  0  0  0  0  0  0  0  0  0
    5.0615   -1.0978    0.6981 H   0  0  0  0  0  0  0  0  0  0  0  0
    3.1622    2.1037   -1.5429 H   0  0  0  0  0  0  0  0  0  0  0  0
    4.8172    2.2953   -0.8909 H   0  0  0  0  0  0  0  0  0  0  0  0
    4.5122    1.2020   -2.2615 H   0  0  0  0  0  0  0  0  0  0  0  0
   -3.4235   -0.8204    0.5875 H   0  0  0  0  0  0  0  0  0  0  0  0
   -5.6262    0.6912   -0.9394 H   0  0  0  0  0  0  0  0  0  0  0  0
   -5.8989   -0.4383    0.4046 H   0  0  0  0  0  0  0  0  0  0  0  0
   -5.0615    1.0978    0.6981 H   0  0  0  0  0  0  0  0  0  0  0  0
   -3.1622   -2.1037   -1.5429 H   0  0  0  0  0  0  0  0  0  0  0  0
   -4.8172   -2.2953   -0.8909 H   0  0  0  0  0  0  0  0  0  0  0  0
   -4.5122   -1.2021   -2.2615 H   0  0  0  0  0  0  0  0  0  0  0  0
   -0.7813   -1.4323    1.3527 H   0  0  0  0  0  0  0  0  0  0  0  0
    0.3491   -3.8156   -0.2333 H   0  0  0  0  0  0  0  0  0  0  0  0
   -1.2549   -3.7234    0.5253 H   0  0  0  0  0  0  0  0  0  0  0  0
   -0.8547   -2.6306   -0.8287 H   0  0  0  0  0  0  0  0  0  0  0  0
    1.0103   -1.9397    3.0068 H   0  0  0  0  0  0  0  0  0  0  0  0
   -0.1382   -3.2962    2.8372 H   0  0  0  0  0  0  0  0  0  0  0  0
    1.4634   -3.3939    2.0769 H   0  0  0  0  0  0  0  0  0  0  0  0
    0.7813    1.4324    1.3527 H   0  0  0  0  0  0  0  0  0  0  0  0
   -0.3491    3.8155   -0.2334 H   0  0  0  0  0  0  0  0  0  0  0  0
    1.2549    3.7234    0.5253 H   0  0  0  0  0  0  0  0  0  0  0  0
    0.8547    2.6306   -0.8287 H   0  0  0  0  0  0  0  0  0  0  0  0
   -1.0104    1.9397    3.0068 H   0  0  0  0  0  0  0  0  0  0  0  0
    0.1382    3.2962    2.8372 H   0  0  0  0  0  0  0  0  0  0  0  0
   -1.4634    3.3939    2.0769 H   0  0  0  0  0  0  0  0  0  0  0  0
  1  2  1  1  0  0  0
  1  5  1  0  0  0  0
  1  6  1  0  0  0  0
  2  3  1  0  0  0  0
  3  4  1  0  0  0  0
  3 14  1  0  0  0  0
  3 23  1  6  0  0  0
  4  5  1  0  0  0  0
  4 24  1  0  0  0  0
  4 25  1  0  0  0  0
  5 20  1  0  0  0  0
  6  7  1  1  0  0  0
  6 10  1  0  0  0  0
  7  8  1  0  0  0  0
  8  9  1  0  0  0  0
  8 11  1  0  0  0  0
  8 26  1  6  0  0  0
  9 10  1  0  0  0  0
  9 27  1  0  0  0  0
  9 28  1  0  0  0  0
 10 17  1  0  0  0  0
 11 12  1  0  0  0  0
 11 13  1  0  0  0  0
 11 29  1  0  0  0  0
 12 30  1  0  0  0  0
 12 31  1  0  0  0  0
 12 32  1  0  0  0  0
 13 33  1  0  0  0  0
 13 34  1  0  0  0  0
 13 35  1  0  0  0  0
 14 15  1  0  0  0  0
 14 16  1  0  0  0  0
 14 36  1  0  0  0  0
 15 37  1  0  0  0  0
 15 38  1  0  0  0  0
 15 39  1  0  0  0  0
 16 40  1  0  0  0  0
 16 41  1  0  0  0  0
 16 42  1  0  0  0  0
 17 18  1  0  0  0  0
 17 19  1  0  0  0  0
 17 43  1  0  0  0  0
 18 44  1  0  0  0  0
 18 45  1  0  0  0  0
 18 46  1  0  0  0  0
 19 47  1  0  0  0  0
 19 48  1  0  0  0  0
 19 49  1  0  0  0  0
 20 21  1  0  0  0  0
 20 22  1  0  0  0  0
 20 50  1  0  0  0  0
 21 51  1  0  0  0  0
 21 52  1  0  0  0  0
 21 53  1  0  0  0  0
 22 54  1  0  0  0  0
 22 55  1  0  0  0  0
 22 56  1  0  0  0  0
M  END
$$$$
