Title Card Required
 OpenBabel03192317553D

 70 73  0  0  1  0  0  0  0  0999 V2000
    0.8028    0.5537    0.1740 C   0  0  1  0  0  3  0  0  0  0  0  0
    0.9526    1.5766    0.9233 N   0  0  0  0  0  2  0  0  0  0  0  0
    2.3130    2.0709    0.7028 C   0  0  2  0  0  0  0  0  0  0  0  0
    2.7716    1.3581   -0.5854 C   0  0  0  0  0  0  0  0  0  0  0  0
    1.8604    0.2151   -0.6573 N   0  0  2  0  0  0  0  0  0  0  0  0
   -0.4430   -0.2665    0.2722 C   0  0  2  0  0  3  0  0  0  0  0  0
   -0.5124   -1.2974    1.0186 N   0  0  0  0  0  2  0  0  0  0  0  0
   -1.8378   -1.8784    0.7968 C   0  0  2  0  0  0  0  0  0  0  0  0
   -2.6288   -0.8085    0.0032 C   0  0  0  0  0  0  0  0  0  0  0  0
   -1.5536    0.0540   -0.4803 N   0  0  1  0  0  0  0  0  0  0  0  0
   -1.7133    1.3389   -1.1573 C   0  0  0  0  0  0  0  0  0  0  0  0
    1.7701   -0.5046   -1.9321 C   0  0  0  0  0  0  0  0  0  0  0  0
   -2.5116   -2.3255    2.0942 C   0  0  0  0  0  0  0  0  0  0  0  0
   -3.8933   -2.9111    1.8117 C   0  0  0  0  0  0  0  0  0  0  0  0
    3.2050    1.7521    1.9178 C   0  0  0  0  0  0  0  0  0  0  0  0
    0.9993   -1.8298   -1.8478 C   0  0  0  0  0  0  0  0  0  0  0  0
    1.6766   -2.8265   -0.9077 C   0  0  0  0  0  0  0  0  0  0  0  0
    3.1168   -3.0971   -1.3448 C   0  0  0  0  0  0  0  0  0  0  0  0
    3.9062   -1.7955   -1.4943 C   0  0  0  0  0  0  0  0  0  0  0  0
    3.1887   -0.8226   -2.4309 C   0  0  0  0  0  0  0  0  0  0  0  0
   -2.0075    2.5282   -0.2229 C   0  0  0  0  0  0  0  0  0  0  0  0
   -3.4697    2.6415    0.2091 C   0  0  0  0  0  0  0  0  0  0  0  0
   -4.4005    2.6540   -1.0021 C   0  0  0  0  0  0  0  0  0  0  0  0
   -4.1975    1.4024   -1.8556 C   0  0  0  0  0  0  0  0  0  0  0  0
   -2.7374    1.2591   -2.2989 C   0  0  0  0  0  0  0  0  0  0  0  0
    4.5748    2.4124    1.7752 C   0  0  0  0  0  0  0  0  0  0  0  0
    2.5348    2.1843    3.2190 C   0  0  0  0  0  0  0  0  0  0  0  0
   -1.6288   -3.3177    2.8443 C   0  0  0  0  0  0  0  0  0  0  0  0
    2.2913    3.1664    0.5770 H   0  0  0  0  0  0  0  0  0  0  0  0
    2.6471    1.9977   -1.4814 H   0  0  0  0  0  0  0  0  0  0  0  0
    3.8214    1.0357   -0.5399 H   0  0  0  0  0  0  0  0  0  0  0  0
   -1.6962   -2.7800    0.1649 H   0  0  0  0  0  0  0  0  0  0  0  0
   -3.2134   -1.2361   -0.8232 H   0  0  0  0  0  0  0  0  0  0  0  0
   -3.3210   -0.2598    0.6694 H   0  0  0  0  0  0  0  0  0  0  0  0
   -0.7307    1.5303   -1.6190 H   0  0  0  0  0  0  0  0  0  0  0  0
    1.2775    0.1513   -2.6807 H   0  0  0  0  0  0  0  0  0  0  0  0
   -2.6260   -1.4195    2.7158 H   0  0  0  0  0  0  0  0  0  0  0  0
   -3.8102   -3.7874    1.1484 H   0  0  0  0  0  0  0  0  0  0  0  0
   -4.3774   -3.2412    2.7420 H   0  0  0  0  0  0  0  0  0  0  0  0
   -4.5623   -2.1832    1.3284 H   0  0  0  0  0  0  0  0  0  0  0  0
    3.3341    0.6542    1.9369 H   0  0  0  0  0  0  0  0  0  0  0  0
   -0.0527   -1.6687   -1.5835 H   0  0  0  0  0  0  0  0  0  0  0  0
    0.9908   -2.2399   -2.8720 H   0  0  0  0  0  0  0  0  0  0  0  0
    1.6561   -2.4220    0.1155 H   0  0  0  0  0  0  0  0  0  0  0  0
    1.0999   -3.7639   -0.8844 H   0  0  0  0  0  0  0  0  0  0  0  0
    3.6163   -3.7658   -0.6278 H   0  0  0  0  0  0  0  0  0  0  0  0
    3.1098   -3.6238   -2.3157 H   0  0  0  0  0  0  0  0  0  0  0  0
    4.0196   -1.3262   -0.5023 H   0  0  0  0  0  0  0  0  0  0  0  0
    4.9198   -1.9998   -1.8712 H   0  0  0  0  0  0  0  0  0  0  0  0
    3.0897   -1.2778   -3.4298 H   0  0  0  0  0  0  0  0  0  0  0  0
    3.7736    0.0980   -2.5715 H   0  0  0  0  0  0  0  0  0  0  0  0
   -1.3270    2.4777    0.6389 H   0  0  0  0  0  0  0  0  0  0  0  0
   -1.7420    3.4453   -0.7785 H   0  0  0  0  0  0  0  0  0  0  0  0
   -3.7402    1.8033    0.8716 H   0  0  0  0  0  0  0  0  0  0  0  0
   -3.6041    3.5567    0.8051 H   0  0  0  0  0  0  0  0  0  0  0  0
   -5.4514    2.7344   -0.6862 H   0  0  0  0  0  0  0  0  0  0  0  0
   -4.1829    3.5486   -1.6121 H   0  0  0  0  0  0  0  0  0  0  0  0
   -4.5158    0.5213   -1.2767 H   0  0  0  0  0  0  0  0  0  0  0  0
   -4.8432    1.4338   -2.7463 H   0  0  0  0  0  0  0  0  0  0  0  0
   -2.5133    2.0863   -2.9925 H   0  0  0  0  0  0  0  0  0  0  0  0
   -2.5807    0.3247   -2.8604 H   0  0  0  0  0  0  0  0  0  0  0  0
    4.4693    3.5093    1.7723 H   0  0  0  0  0  0  0  0  0  0  0  0
    5.2259    2.1426    2.6190 H   0  0  0  0  0  0  0  0  0  0  0  0
    5.0933    2.1216    0.8498 H   0  0  0  0  0  0  0  0  0  0  0  0
    1.5676    1.6845    3.3486 H   0  0  0  0  0  0  0  0  0  0  0  0
    3.1777    1.9540    4.0812 H   0  0  0  0  0  0  0  0  0  0  0  0
    2.3550    3.2719    3.2120 H   0  0  0  0  0  0  0  0  0  0  0  0
   -0.6336   -2.8900    3.0188 H   0  0  0  0  0  0  0  0  0  0  0  0
   -2.0778   -3.5908    3.8103 H   0  0  0  0  0  0  0  0  0  0  0  0
   -1.5052   -4.2416    2.2560 H   0  0  0  0  0  0  0  0  0  0  0  0
  1  2  1  1  0  0  0
  1  5  1  0  0  0  0
  1  6  1  0  0  0  0
  2  3  1  0  0  0  0
  3  4  1  0  0  0  0
  3 15  1  0  0  0  0
  3 29  1  6  0  0  0
  4  5  1  0  0  0  0
  4 30  1  0  0  0  0
  4 31  1  0  0  0  0
  5 12  1  6  0  0  0
  6  7  1  6  0  0  0
  6 10  1  0  0  0  0
  7  8  1  0  0  0  0
  8  9  1  0  0  0  0
  8 13  1  0  0  0  0
  8 32  1  6  0  0  0
  9 10  1  0  0  0  0
  9 33  1  0  0  0  0
  9 34  1  0  0  0  0
 10 11  1  1  0  0  0
 11 21  1  0  0  0  0
 11 25  1  0  0  0  0
 11 35  1  0  0  0  0
 12 16  1  0  0  0  0
 12 20  1  0  0  0  0
 12 36  1  0  0  0  0
 13 14  1  0  0  0  0
 13 28  1  0  0  0  0
 13 37  1  0  0  0  0
 14 38  1  0  0  0  0
 14 39  1  0  0  0  0
 14 40  1  0  0  0  0
 15 26  1  0  0  0  0
 15 27  1  0  0  0  0
 15 41  1  0  0  0  0
 16 17  1  0  0  0  0
 16 42  1  0  0  0  0
 16 43  1  0  0  0  0
 17 18  1  0  0  0  0
 17 44  1  0  0  0  0
 17 45  1  0  0  0  0
 18 19  1  0  0  0  0
 18 46  1  0  0  0  0
 18 47  1  0  0  0  0
 19 20  1  0  0  0  0
 19 48  1  0  0  0  0
 19 49  1  0  0  0  0
 20 50  1  0  0  0  0
 20 51  1  0  0  0  0
 21 22  1  0  0  0  0
 21 52  1  0  0  0  0
 21 53  1  0  0  0  0
 22 23  1  0  0  0  0
 22 54  1  0  0  0  0
 22 55  1  0  0  0  0
 23 24  1  0  0  0  0
 23 56  1  0  0  0  0
 23 57  1  0  0  0  0
 24 25  1  0  0  0  0
 24 58  1  0  0  0  0
 24 59  1  0  0  0  0
 25 60  1  0  0  0  0
 25 61  1  0  0  0  0
 26 62  1  0  0  0  0
 26 63  1  0  0  0  0
 26 64  1  0  0  0  0
 27 65  1  0  0  0  0
 27 66  1  0  0  0  0
 27 67  1  0  0  0  0
 28 68  1  0  0  0  0
 28 69  1  0  0  0  0
 28 70  1  0  0  0  0
M  END
$$$$
