Title Card Required
 OpenBabel03192317533D

 78 83  0  0  1  0  0  0  0  0999 V2000
   -2.8025   -0.5241    0.5313 C   0  0  1  0  0  3  0  0  0  0  0  0
   -3.6923   -1.4284    0.6198 N   0  0  0  0  0  2  0  0  0  0  0  0
   -3.3165   -2.2836    1.7526 C   0  0  2  0  0  0  0  0  0  0  0  0
   -1.8471   -1.9163    2.0570 C   0  0  0  0  0  0  0  0  0  0  0  0
   -1.7541   -0.5983    1.4446 N   0  0  0  0  0  0  0  0  0  0  0  0
   -2.8025    0.5242   -0.5311 C   0  0  1  0  0  3  0  0  0  0  0  0
   -3.6924    1.4285   -0.6196 N   0  0  0  0  0  2  0  0  0  0  0  0
   -3.3167    2.2836   -1.7525 C   0  0  2  0  0  0  0  0  0  0  0  0
   -1.8473    1.9163   -2.0570 C   0  0  0  0  0  0  0  0  0  0  0  0
   -1.7542    0.5983   -1.4445 N   0  0  0  0  0  0  0  0  0  0  0  0
   -0.6135   -0.2112   -1.4919 C   0  0  0  0  0  0  0  0  0  0  0  0
   -0.7189   -1.5995   -1.3156 C   0  0  0  0  0  0  0  0  0  0  0  0
    0.4237   -2.3885   -1.2818 C   0  0  0  0  0  0  0  0  0  0  0  0
    1.7007   -1.8346   -1.4556 C   0  0  0  0  0  0  0  0  0  0  0  0
    1.7865   -0.4557   -1.6858 C   0  0  0  0  0  0  0  0  0  0  0  0
    0.6522    0.3489   -1.7064 C   0  0  0  0  0  0  0  0  0  0  0  0
   -0.6134    0.2112    1.4920 C   0  0  0  0  0  0  0  0  0  0  0  0
   -0.7187    1.5995    1.3158 C   0  0  0  0  0  0  0  0  0  0  0  0
    0.4239    2.3885    1.2820 C   0  0  0  0  0  0  0  0  0  0  0  0
    1.7009    1.8346    1.4556 C   0  0  0  0  0  0  0  0  0  0  0  0
    1.7867    0.4557    1.6857 C   0  0  0  0  0  0  0  0  0  0  0  0
    0.6524   -0.3490    1.7063 C   0  0  0  0  0  0  0  0  0  0  0  0
   -3.5457    3.7654   -1.4586 C   0  0  0  0  0  0  0  0  0  0  0  0
   -3.0935    4.6235   -2.6383 C   0  0  0  0  0  0  0  0  0  0  0  0
   -5.0071    4.0235   -1.1065 C   0  0  0  0  0  0  0  0  0  0  0  0
   -3.5455   -3.7653    1.4586 C   0  0  0  0  0  0  0  0  0  0  0  0
   -3.0933   -4.6236    2.6383 C   0  0  0  0  0  0  0  0  0  0  0  0
   -5.0070   -4.0235    1.1066 C   0  0  0  0  0  0  0  0  0  0  0  0
    2.9163    2.6851    1.4065 C   0  0  0  0  0  0  0  0  0  0  0  0
    2.9161   -2.6851   -1.4066 C   0  0  0  0  0  0  0  0  0  0  0  0
    2.9088   -3.9825   -1.9384 C   0  0  0  0  0  0  0  0  0  0  0  0
    4.0480   -4.7822   -1.8876 C   0  0  0  0  0  0  0  0  0  0  0  0
    5.2194   -4.2996   -1.3051 C   0  0  0  0  0  0  0  0  0  0  0  0
    5.2409   -3.0114   -0.7724 C   0  0  0  0  0  0  0  0  0  0  0  0
    4.1001   -2.2133   -0.8219 C   0  0  0  0  0  0  0  0  0  0  0  0
    2.9090    3.9825    1.9384 C   0  0  0  0  0  0  0  0  0  0  0  0
    4.0482    4.7821    1.8875 C   0  0  0  0  0  0  0  0  0  0  0  0
    5.2196    4.2996    1.3050 C   0  0  0  0  0  0  0  0  0  0  0  0
    5.2411    3.0113    0.7722 C   0  0  0  0  0  0  0  0  0  0  0  0
    4.1003    2.2133    0.8218 C   0  0  0  0  0  0  0  0  0  0  0  0
   -3.9605   -2.0009    2.6085 H   0  0  0  0  0  0  0  0  0  0  0  0
   -1.6050   -1.8755    3.1276 H   0  0  0  0  0  0  0  0  0  0  0  0
   -1.1553   -2.6275    1.5612 H   0  0  0  0  0  0  0  0  0  0  0  0
   -3.9607    2.0009   -2.6083 H   0  0  0  0  0  0  0  0  0  0  0  0
   -1.6053    1.8754   -3.1276 H   0  0  0  0  0  0  0  0  0  0  0  0
   -1.1554    2.6275   -1.5613 H   0  0  0  0  0  0  0  0  0  0  0  0
   -1.7046   -2.0535   -1.2035 H   0  0  0  0  0  0  0  0  0  0  0  0
    0.3216   -3.4624   -1.1109 H   0  0  0  0  0  0  0  0  0  0  0  0
    2.7624    0.0020   -1.8619 H   0  0  0  0  0  0  0  0  0  0  0  0
    0.7560    1.4228   -1.8643 H   0  0  0  0  0  0  0  0  0  0  0  0
   -1.7044    2.0536    1.2038 H   0  0  0  0  0  0  0  0  0  0  0  0
    0.3218    3.4625    1.1112 H   0  0  0  0  0  0  0  0  0  0  0  0
    2.7626   -0.0021    1.8616 H   0  0  0  0  0  0  0  0  0  0  0  0
    0.7562   -1.4229    1.8641 H   0  0  0  0  0  0  0  0  0  0  0  0
   -2.9233    4.0143   -0.5793 H   0  0  0  0  0  0  0  0  0  0  0  0
   -3.6640    4.3613   -3.5441 H   0  0  0  0  0  0  0  0  0  0  0  0
   -3.2637    5.6901   -2.4336 H   0  0  0  0  0  0  0  0  0  0  0  0
   -2.0239    4.4931   -2.8614 H   0  0  0  0  0  0  0  0  0  0  0  0
   -5.3210    3.3843   -0.2719 H   0  0  0  0  0  0  0  0  0  0  0  0
   -5.1650    5.0767   -0.8327 H   0  0  0  0  0  0  0  0  0  0  0  0
   -5.6536    3.7981   -1.9699 H   0  0  0  0  0  0  0  0  0  0  0  0
   -2.9232   -4.0142    0.5793 H   0  0  0  0  0  0  0  0  0  0  0  0
   -3.6637   -4.3614    3.5441 H   0  0  0  0  0  0  0  0  0  0  0  0
   -3.2636   -5.6901    2.4335 H   0  0  0  0  0  0  0  0  0  0  0  0
   -2.0237   -4.4931    2.8613 H   0  0  0  0  0  0  0  0  0  0  0  0
   -5.3209   -3.3842    0.2721 H   0  0  0  0  0  0  0  0  0  0  0  0
   -5.1649   -5.0767    0.8327 H   0  0  0  0  0  0  0  0  0  0  0  0
   -5.6534   -3.7981    1.9701 H   0  0  0  0  0  0  0  0  0  0  0  0
    2.0043   -4.3591   -2.4200 H   0  0  0  0  0  0  0  0  0  0  0  0
    4.0228   -5.7860   -2.3146 H   0  0  0  0  0  0  0  0  0  0  0  0
    6.1125   -4.9251   -1.2681 H   0  0  0  0  0  0  0  0  0  0  0  0
    6.1503   -2.6268   -0.3078 H   0  0  0  0  0  0  0  0  0  0  0  0
    4.1167   -1.2143   -0.3817 H   0  0  0  0  0  0  0  0  0  0  0  0
    2.0046    4.3591    2.4200 H   0  0  0  0  0  0  0  0  0  0  0  0
    4.0231    5.7859    2.3146 H   0  0  0  0  0  0  0  0  0  0  0  0
    6.1127    4.9250    1.2679 H   0  0  0  0  0  0  0  0  0  0  0  0
    6.1505    2.6267    0.3076 H   0  0  0  0  0  0  0  0  0  0  0  0
    4.1168    1.2143    0.3816 H   0  0  0  0  0  0  0  0  0  0  0  0
  1  2  1  6  0  0  0
  1  5  1  0  0  0  0
  1  6  1  0  0  0  0
  2  3  1  0  0  0  0
  3  4  1  0  0  0  0
  3 26  1  0  0  0  0
  3 41  1  1  0  0  0
  4  5  1  0  0  0  0
  4 42  1  0  0  0  0
  4 43  1  0  0  0  0
  5 17  1  0  0  0  0
  6  7  1  1  0  0  0
  6 10  1  0  0  0  0
  7  8  1  0  0  0  0
  8  9  1  0  0  0  0
  8 23  1  0  0  0  0
  8 44  1  6  0  0  0
  9 10  1  0  0  0  0
  9 45  1  0  0  0  0
  9 46  1  0  0  0  0
 10 11  1  0  0  0  0
 11 12  2  0  0  0  0
 11 16  1  0  0  0  0
 12 13  1  0  0  0  0
 12 47  1  0  0  0  0
 13 14  2  0  0  0  0
 13 48  1  0  0  0  0
 14 15  1  0  0  0  0
 14 30  1  0  0  0  0
 15 16  2  0  0  0  0
 15 49  1  0  0  0  0
 16 50  1  0  0  0  0
 17 18  2  0  0  0  0
 17 22  1  0  0  0  0
 18 19  1  0  0  0  0
 18 51  1  0  0  0  0
 19 20  2  0  0  0  0
 19 52  1  0  0  0  0
 20 21  1  0  0  0  0
 20 29  1  0  0  0  0
 21 22  2  0  0  0  0
 21 53  1  0  0  0  0
 22 54  1  0  0  0  0
 23 24  1  0  0  0  0
 23 25  1  0  0  0  0
 23 55  1  0  0  0  0
 24 56  1  0  0  0  0
 24 57  1  0  0  0  0
 24 58  1  0  0  0  0
 25 59  1  0  0  0  0
 25 60  1  0  0  0  0
 25 61  1  0  0  0  0
 26 27  1  0  0  0  0
 26 28  1  0  0  0  0
 26 62  1  0  0  0  0
 27 63  1  0  0  0  0
 27 64  1  0  0  0  0
 27 65  1  0  0  0  0
 28 66  1  0  0  0  0
 28 67  1  0  0  0  0
 28 68  1  0  0  0  0
 29 36  2  0  0  0  0
 29 40  1  0  0  0  0
 30 31  2  0  0  0  0
 30 35  1  0  0  0  0
 31 32  1  0  0  0  0
 31 69  1  0  0  0  0
 32 33  2  0  0  0  0
 32 70  1  0  0  0  0
 33 34  1  0  0  0  0
 33 71  1  0  0  0  0
 34 35  2  0  0  0  0
 34 72  1  0  0  0  0
 35 73  1  0  0  0  0
 36 37  1  0  0  0  0
 36 74  1  0  0  0  0
 37 38  2  0  0  0  0
 37 75  1  0  0  0  0
 38 39  1  0  0  0  0
 38 76  1  0  0  0  0
 39 40  2  0  0  0  0
 39 77  1  0  0  0  0
 40 78  1  0  0  0  0
M  END
$$$$
