Title Card Required
 OpenBabel03192317493D

 42 45  0  0  1  0  0  0  0  0999 V2000
    0.8798    0.2385   -1.4715 O   0  0  0  0  0  0  0  0  0  0  0  0
    1.2249   -0.7383   -0.6078 C   0  0  0  0  0  0  0  0  0  0  0  0
    0.3414   -1.5875   -0.2763 N   0  0  0  0  0  0  0  0  0  0  0  0
   -0.8588   -1.2506   -1.0373 C   0  0  2  0  0  0  0  0  0  0  0  0
   -0.5453    0.2027   -1.5584 C   0  0  1  0  0  0  0  0  0  0  0  0
   -1.1427    1.3178   -0.7302 C   0  0  0  0  0  0  0  0  0  0  0  0
   -2.4967    1.6361   -0.8790 C   0  0  0  0  0  0  0  0  0  0  0  0
   -3.0882    2.6007   -0.0699 C   0  0  0  0  0  0  0  0  0  0  0  0
   -2.3267    3.2672    0.8916 C   0  0  0  0  0  0  0  0  0  0  0  0
   -0.9724    2.9712    1.0263 C   0  0  0  0  0  0  0  0  0  0  0  0
   -0.3778    2.0024    0.2165 C   0  0  0  0  0  0  0  0  0  0  0  0
   -2.1412   -1.3923   -0.2590 C   0  0  0  0  0  0  0  0  0  0  0  0
   -2.1800   -1.1078    1.1085 C   0  0  0  0  0  0  0  0  0  0  0  0
   -3.3882   -1.1455    1.7994 C   0  0  0  0  0  0  0  0  0  0  0  0
   -4.5700   -1.4711    1.1318 C   0  0  0  0  0  0  0  0  0  0  0  0
   -4.5353   -1.7711   -0.2287 C   0  0  0  0  0  0  0  0  0  0  0  0
   -3.3234   -1.7359   -0.9178 C   0  0  0  0  0  0  0  0  0  0  0  0
    2.6256   -0.7347   -0.1173 C   0  0  0  0  0  0  0  0  0  0  0  0
    3.1182   -1.8724    0.5292 C   0  0  0  0  0  0  0  0  0  0  0  0
    4.4303   -1.8347    0.9844 C   0  0  0  0  0  0  0  0  0  0  0  0
    5.1814   -0.6796    0.7805 C   0  0  0  0  0  0  0  0  0  0  0  0
    4.5953    0.4132    0.1288 C   0  0  0  0  0  0  0  0  0  0  0  0
    3.3355    0.3726   -0.3097 N   0  0  0  0  0  0  0  0  0  0  0  0
    5.3493    1.6912   -0.1136 C   0  0  0  0  0  0  0  0  0  0  0  0
   -0.9068   -1.9297   -1.9066 H   0  0  0  0  0  0  0  0  0  0  0  0
   -0.8302    0.3173   -2.6125 H   0  0  0  0  0  0  0  0  0  0  0  0
   -3.0978    1.1087   -1.6233 H   0  0  0  0  0  0  0  0  0  0  0  0
   -4.1475    2.8329   -0.1888 H   0  0  0  0  0  0  0  0  0  0  0  0
   -2.7884    4.0231    1.5289 H   0  0  0  0  0  0  0  0  0  0  0  0
   -0.3688    3.5016    1.7646 H   0  0  0  0  0  0  0  0  0  0  0  0
    0.6891    1.7874    0.3027 H   0  0  0  0  0  0  0  0  0  0  0  0
   -1.2511   -0.8517    1.6216 H   0  0  0  0  0  0  0  0  0  0  0  0
   -3.4094   -0.9174    2.8663 H   0  0  0  0  0  0  0  0  0  0  0  0
   -5.5160   -1.4977    1.6749 H   0  0  0  0  0  0  0  0  0  0  0  0
   -5.4531   -2.0383   -0.7551 H   0  0  0  0  0  0  0  0  0  0  0  0
   -3.2968   -1.9732   -1.9849 H   0  0  0  0  0  0  0  0  0  0  0  0
    2.4689   -2.7384    0.6534 H   0  0  0  0  0  0  0  0  0  0  0  0
    4.8674   -2.6965    1.4911 H   0  0  0  0  0  0  0  0  0  0  0  0
    6.2153   -0.6172    1.1225 H   0  0  0  0  0  0  0  0  0  0  0  0
    5.3497    1.9240   -1.1873 H   0  0  0  0  0  0  0  0  0  0  0  0
    4.8455    2.5239    0.3973 H   0  0  0  0  0  0  0  0  0  0  0  0
    6.3848    1.6279    0.2424 H   0  0  0  0  0  0  0  0  0  0  0  0
  1  2  1  0  0  0  0
  1  5  1  0  0  0  0
  2  3  2  0  0  0  0
  2 18  1  0  0  0  0
  3  4  1  0  0  0  0
  4  5  1  0  0  0  0
  4 12  1  0  0  0  0
  4 25  1  6  0  0  0
  5  6  1  0  0  0  0
  5 26  1  6  0  0  0
  6  7  2  0  0  0  0
  6 11  1  0  0  0  0
  7  8  1  0  0  0  0
  7 27  1  0  0  0  0
  8  9  2  0  0  0  0
  8 28  1  0  0  0  0
  9 10  1  0  0  0  0
  9 29  1  0  0  0  0
 10 11  2  0  0  0  0
 10 30  1  0  0  0  0
 11 31  1  0  0  0  0
 12 13  2  0  0  0  0
 12 17  1  0  0  0  0
 13 14  1  0  0  0  0
 13 32  1  0  0  0  0
 14 15  2  0  0  0  0
 14 33  1  0  0  0  0
 15 16  1  0  0  0  0
 15 34  1  0  0  0  0
 16 17  2  0  0  0  0
 16 35  1  0  0  0  0
 17 36  1  0  0  0  0
 18 19  2  0  0  0  0
 18 23  1  0  0  0  0
 19 20  1  0  0  0  0
 19 37  1  0  0  0  0
 20 21  2  0  0  0  0
 20 38  1  0  0  0  0
 21 22  1  0  0  0  0
 21 39  1  0  0  0  0
 22 23  2  0  0  0  0
 22 24  1  0  0  0  0
 24 40  1  0  0  0  0
 24 41  1  0  0  0  0
 24 42  1  0  0  0  0
M  END
$$$$
