Title Card Required
 OpenBabel03192317403D

 89 97  0  0  1  0  0  0  0  0999 V2000
   -2.2717    1.0759    0.5600 N   0  0  0  0  0  0  0  0  0  0  0  0
   -2.4613    0.3945    1.7986 C   0  0  0  0  0  0  0  0  0  0  0  0
   -3.3185   -0.7200    1.8643 C   0  0  0  0  0  0  0  0  0  0  0  0
   -4.1281   -1.1615    0.7244 C   0  0  0  0  0  0  0  0  0  0  0  0
   -4.6520   -0.3992   -0.2558 C   0  0  0  0  0  0  0  0  0  0  0  0
   -4.5200    1.0518   -0.4349 C   0  0  0  0  0  0  0  0  0  0  0  0
   -3.3819    1.7662   -0.0131 C   0  0  0  0  0  0  0  0  0  0  0  0
   -3.3822   -1.4398    3.0678 C   0  0  0  0  0  0  0  0  0  0  0  0
   -2.6331   -1.0606    4.1765 C   0  0  0  0  0  0  0  0  0  0  0  0
   -1.8011    0.0577    4.1020 C   0  0  0  0  0  0  0  0  0  0  0  0
   -1.7218    0.7852    2.9168 C   0  0  0  0  0  0  0  0  0  0  0  0
   -3.2973    3.1443   -0.2178 C   0  0  0  0  0  0  0  0  0  0  0  0
   -4.3310    3.8302   -0.8500 C   0  0  0  0  0  0  0  0  0  0  0  0
   -5.4632    3.1351   -1.2751 C   0  0  0  0  0  0  0  0  0  0  0  0
   -5.5496    1.7622   -1.0718 C   0  0  0  0  0  0  0  0  0  0  0  0
   -0.8419   -0.8696   -0.0833 O   0  0  0  0  0  0  0  0  0  0  0  0
   -0.9353    0.7636   -0.4334 P   0  0  2  0  0  0  0  0  0  0  0  0
    0.2770    1.2421    0.6214 O   0  0  0  0  0  0  0  0  0  0  0  0
    1.6173    1.4020    0.1743 C   0  0  0  0  0  0  0  0  0  0  0  0
    1.9729    0.1919   -0.7427 C   0  0  2  0  0  0  0  0  0  0  0  0
    1.5248   -1.1800   -0.1904 C   0  0  1  0  0  0  0  0  0  0  0  0
    0.1454   -1.7125   -0.6587 C   0  0  0  0  0  0  0  0  0  0  0  0
    2.5628   -2.0349   -0.6041 O   0  0  0  0  0  0  0  0  0  0  0  0
    3.7609   -1.2898   -0.6033 C   0  0  0  0  0  0  0  0  0  0  0  0
    3.3599    0.0429   -0.9312 O   0  0  0  0  0  0  0  0  0  0  0  0
   -0.0497   -3.0908   -0.0207 C   0  0  0  0  0  0  0  0  0  0  0  0
   -0.6781   -3.1912    1.2240 C   0  0  0  0  0  0  0  0  0  0  0  0
   -0.8258   -4.4353    1.8368 C   0  0  0  0  0  0  0  0  0  0  0  0
   -0.3405   -5.5856    1.2178 C   0  0  0  0  0  0  0  0  0  0  0  0
    0.2967   -5.4857   -0.0188 C   0  0  0  0  0  0  0  0  0  0  0  0
    0.4405   -4.2451   -0.6365 C   0  0  0  0  0  0  0  0  0  0  0  0
   -0.0811   -1.7784   -2.1737 C   0  0  0  0  0  0  0  0  0  0  0  0
    0.9421   -1.8580   -3.1223 C   0  0  0  0  0  0  0  0  0  0  0  0
    0.6398   -1.9402   -4.4836 C   0  0  0  0  0  0  0  0  0  0  0  0
   -0.6836   -1.9510   -4.9131 C   0  0  0  0  0  0  0  0  0  0  0  0
   -1.7104   -1.8796   -3.9710 C   0  0  0  0  0  0  0  0  0  0  0  0
   -1.4115   -1.7947   -2.6152 C   0  0  0  0  0  0  0  0  0  0  0  0
    2.4964    1.4096    1.4217 C   0  0  0  0  0  0  0  0  0  0  0  0
    2.0355    0.8490    2.6173 C   0  0  0  0  0  0  0  0  0  0  0  0
    2.8678    0.7939    3.7366 C   0  0  0  0  0  0  0  0  0  0  0  0
    4.1630    1.3037    3.6754 C   0  0  0  0  0  0  0  0  0  0  0  0
    4.6211    1.8764    2.4887 C   0  0  0  0  0  0  0  0  0  0  0  0
    3.7937    1.9295    1.3697 C   0  0  0  0  0  0  0  0  0  0  0  0
    1.7388    2.7243   -0.5852 C   0  0  0  0  0  0  0  0  0  0  0  0
    1.0452    3.8365   -0.0940 C   0  0  0  0  0  0  0  0  0  0  0  0
    1.1354    5.0674   -0.7369 C   0  0  0  0  0  0  0  0  0  0  0  0
    1.9258    5.2045   -1.8792 C   0  0  0  0  0  0  0  0  0  0  0  0
    2.6224    4.1036   -2.3690 C   0  0  0  0  0  0  0  0  0  0  0  0
    2.5302    2.8665   -1.7272 C   0  0  0  0  0  0  0  0  0  0  0  0
    4.4270   -1.3341    0.7643 C   0  0  0  0  0  0  0  0  0  0  0  0
    4.6660   -1.8124   -1.6998 C   0  0  0  0  0  0  0  0  0  0  0  0
    1.4971    0.3750   -1.7239 H   0  0  0  0  0  0  0  0  0  0  0  0
    1.4649   -1.1414    0.9123 H   0  0  0  0  0  0  0  0  0  0  0  0
   -4.4008   -2.2208    0.7341 H   0  0  0  0  0  0  0  0  0  0  0  0
   -5.3194   -0.8929   -0.9681 H   0  0  0  0  0  0  0  0  0  0  0  0
   -4.0305   -2.3173    3.1197 H   0  0  0  0  0  0  0  0  0  0  0  0
   -2.6950   -1.6382    5.0999 H   0  0  0  0  0  0  0  0  0  0  0  0
   -1.2078    0.3611    4.9663 H   0  0  0  0  0  0  0  0  0  0  0  0
   -1.0624    1.6483    2.8241 H   0  0  0  0  0  0  0  0  0  0  0  0
   -2.3947    3.6625    0.1105 H   0  0  0  0  0  0  0  0  0  0  0  0
   -4.2485    4.9048   -1.0176 H   0  0  0  0  0  0  0  0  0  0  0  0
   -6.2767    3.6630   -1.7747 H   0  0  0  0  0  0  0  0  0  0  0  0
   -6.4304    1.2144   -1.4136 H   0  0  0  0  0  0  0  0  0  0  0  0
   -1.0583   -2.2897    1.7061 H   0  0  0  0  0  0  0  0  0  0  0  0
   -1.3242   -4.5009    2.8060 H   0  0  0  0  0  0  0  0  0  0  0  0
   -0.4579   -6.5593    1.6967 H   0  0  0  0  0  0  0  0  0  0  0  0
    0.6812   -6.3810   -0.5100 H   0  0  0  0  0  0  0  0  0  0  0  0
    0.9359   -4.1699   -1.6057 H   0  0  0  0  0  0  0  0  0  0  0  0
    1.9801   -1.8644   -2.7967 H   0  0  0  0  0  0  0  0  0  0  0  0
    1.4517   -1.9971   -5.2105 H   0  0  0  0  0  0  0  0  0  0  0  0
   -0.9157   -2.0142   -5.9773 H   0  0  0  0  0  0  0  0  0  0  0  0
   -2.7524   -1.8875   -4.2949 H   0  0  0  0  0  0  0  0  0  0  0  0
   -2.2149   -1.7317   -1.8779 H   0  0  0  0  0  0  0  0  0  0  0  0
    1.0205    0.4527    2.6638 H   0  0  0  0  0  0  0  0  0  0  0  0
    2.4967    0.3502    4.6622 H   0  0  0  0  0  0  0  0  0  0  0  0
    4.8120    1.2628    4.5516 H   0  0  0  0  0  0  0  0  0  0  0  0
    5.6313    2.2854    2.4327 H   0  0  0  0  0  0  0  0  0  0  0  0
    4.1584    2.3732    0.4425 H   0  0  0  0  0  0  0  0  0  0  0  0
    0.4301    3.7218    0.8007 H   0  0  0  0  0  0  0  0  0  0  0  0
    0.5882    5.9262   -0.3443 H   0  0  0  0  0  0  0  0  0  0  0  0
    1.9976    6.1687   -2.3848 H   0  0  0  0  0  0  0  0  0  0  0  0
    3.2432    4.2008   -3.2611 H   0  0  0  0  0  0  0  0  0  0  0  0
    3.0916    2.0142   -2.1135 H   0  0  0  0  0  0  0  0  0  0  0  0
    4.7310   -2.3665    0.9847 H   0  0  0  0  0  0  0  0  0  0  0  0
    5.3119   -0.6840    0.7710 H   0  0  0  0  0  0  0  0  0  0  0  0
    3.7438   -0.9879    1.5515 H   0  0  0  0  0  0  0  0  0  0  0  0
    4.1720   -1.7084   -2.6742 H   0  0  0  0  0  0  0  0  0  0  0  0
    5.6008   -1.2373   -1.7146 H   0  0  0  0  0  0  0  0  0  0  0  0
    4.8965   -2.8702   -1.5190 H   0  0  0  0  0  0  0  0  0  0  0  0
  1  2  1  0  0  0  0
  1  7  1  0  0  0  0
  2  3  2  0  0  0  0
  2 11  1  0  0  0  0
  3  4  1  0  0  0  0
  3  8  1  0  0  0  0
  4  5  2  0  0  0  0
  4 54  1  0  0  0  0
  5  6  1  0  0  0  0
  5 55  1  0  0  0  0
  6  7  2  0  0  0  0
  6 15  1  0  0  0  0
  7 12  1  0  0  0  0
  8  9  2  0  0  0  0
  8 56  1  0  0  0  0
  9 10  1  0  0  0  0
  9 57  1  0  0  0  0
 10 11  2  0  0  0  0
 10 58  1  0  0  0  0
 11 59  1  0  0  0  0
 12 13  2  0  0  0  0
 12 60  1  0  0  0  0
 13 14  1  0  0  0  0
 13 61  1  0  0  0  0
 14 15  2  0  0  0  0
 14 62  1  0  0  0  0
 15 63  1  0  0  0  0
 16 17  1  0  0  0  0
 16 22  1  0  0  0  0
 17  1  1  1  0  0  0
 17 18  1  0  0  0  0
 18 19  1  0  0  0  0
 19 20  1  0  0  0  0
 19 38  1  0  0  0  0
 19 44  1  0  0  0  0
 20 21  1  0  0  0  0
 20 25  1  0  0  0  0
 20 52  1  6  0  0  0
 21 22  1  0  0  0  0
 21 23  1  0  0  0  0
 21 53  1  1  0  0  0
 22 26  1  0  0  0  0
 22 32  1  0  0  0  0
 23 24  1  0  0  0  0
 24 25  1  0  0  0  0
 24 50  1  0  0  0  0
 24 51  1  0  0  0  0
 26 27  2  0  0  0  0
 26 31  1  0  0  0  0
 27 28  1  0  0  0  0
 27 64  1  0  0  0  0
 28 29  2  0  0  0  0
 28 65  1  0  0  0  0
 29 30  1  0  0  0  0
 29 66  1  0  0  0  0
 30 31  2  0  0  0  0
 30 67  1  0  0  0  0
 31 68  1  0  0  0  0
 32 33  2  0  0  0  0
 32 37  1  0  0  0  0
 33 34  1  0  0  0  0
 33 69  1  0  0  0  0
 34 35  2  0  0  0  0
 34 70  1  0  0  0  0
 35 36  1  0  0  0  0
 35 71  1  0  0  0  0
 36 37  2  0  0  0  0
 36 72  1  0  0  0  0
 37 73  1  0  0  0  0
 38 39  2  0  0  0  0
 38 43  1  0  0  0  0
 39 40  1  0  0  0  0
 39 74  1  0  0  0  0
 40 41  2  0  0  0  0
 40 75  1  0  0  0  0
 41 42  1  0  0  0  0
 41 76  1  0  0  0  0
 42 43  2  0  0  0  0
 42 77  1  0  0  0  0
 43 78  1  0  0  0  0
 44 45  2  0  0  0  0
 44 49  1  0  0  0  0
 45 46  1  0  0  0  0
 45 79  1  0  0  0  0
 46 47  2  0  0  0  0
 46 80  1  0  0  0  0
 47 48  1  0  0  0  0
 47 81  1  0  0  0  0
 48 49  2  0  0  0  0
 48 82  1  0  0  0  0
 49 83  1  0  0  0  0
 50 84  1  0  0  0  0
 50 85  1  0  0  0  0
 50 86  1  0  0  0  0
 51 87  1  0  0  0  0
 51 88  1  0  0  0  0
 51 89  1  0  0  0  0
M  END
$$$$
