Title Card Required
 OpenBabel03192317543D

 33 36  0  0  1  0  0  0  0  0999 V2000
   -1.0780   -1.7202    0.1247 O   0  0  0  0  0  0  0  0  0  0  0  0
   -0.5567   -0.6275    0.7082 C   0  0  0  0  0  0  0  0  0  0  0  0
   -1.3007    0.0919    1.4443 N   0  0  0  0  0  0  0  0  0  0  0  0
   -2.6340   -0.5037    1.3737 C   0  0  2  0  0  0  0  0  0  0  0  0
   -2.4329   -1.8323    0.5812 C   0  0  1  0  0  0  0  0  0  0  0  0
   -3.4213   -1.8341   -0.5920 C   0  0  0  0  0  0  0  0  0  0  0  0
   -3.9816   -0.4312   -0.6131 C   0  0  0  0  0  0  0  0  0  0  0  0
   -4.8246    0.1487   -1.5604 C   0  0  0  0  0  0  0  0  0  0  0  0
   -5.2429    1.4666   -1.3792 C   0  0  0  0  0  0  0  0  0  0  0  0
   -4.8228    2.2003   -0.2655 C   0  0  0  0  0  0  0  0  0  0  0  0
   -3.9789    1.6224    0.6819 C   0  0  0  0  0  0  0  0  0  0  0  0
   -3.5704    0.3034    0.5003 C   0  0  0  0  0  0  0  0  0  0  0  0
    0.8766   -0.3423    0.4404 C   0  0  0  0  0  0  0  0  0  0  0  0
    1.4513    0.7955    1.0160 C   0  0  0  0  0  0  0  0  0  0  0  0
    2.7935    1.0521    0.7657 C   0  0  0  0  0  0  0  0  0  0  0  0
    3.4928    0.1650   -0.0476 C   0  0  0  0  0  0  0  0  0  0  0  0
    2.8232   -0.9415   -0.5771 C   0  0  0  0  0  0  0  0  0  0  0  0
    1.5440   -1.1921   -0.3386 N   0  0  0  0  0  0  0  0  0  0  0  0
    4.9498    0.3601   -0.3678 C   0  0  0  0  0  0  0  0  0  0  0  0
    5.4274    1.4846    0.1656 F   0  0  0  0  0  0  0  0  0  0  0  0
    5.6874   -0.6505    0.0948 F   0  0  0  0  0  0  0  0  0  0  0  0
    5.1526    0.4177   -1.6851 F   0  0  0  0  0  0  0  0  0  0  0  0
   -3.0378   -0.6449    2.3875 H   0  0  0  0  0  0  0  0  0  0  0  0
   -2.4978   -2.7395    1.1971 H   0  0  0  0  0  0  0  0  0  0  0  0
   -2.9022   -2.1046   -1.5226 H   0  0  0  0  0  0  0  0  0  0  0  0
   -4.2180   -2.5764   -0.4308 H   0  0  0  0  0  0  0  0  0  0  0  0
   -5.1494   -0.4189   -2.4347 H   0  0  0  0  0  0  0  0  0  0  0  0
   -5.9015    1.9308   -2.1150 H   0  0  0  0  0  0  0  0  0  0  0  0
   -5.1549    3.2321   -0.1411 H   0  0  0  0  0  0  0  0  0  0  0  0
   -3.6347    2.1918    1.5472 H   0  0  0  0  0  0  0  0  0  0  0  0
    0.8350    1.4419    1.6400 H   0  0  0  0  0  0  0  0  0  0  0  0
    3.2926    1.9236    1.1903 H   0  0  0  0  0  0  0  0  0  0  0  0
    3.3561   -1.6488   -1.2211 H   0  0  0  0  0  0  0  0  0  0  0  0
  1  2  1  0  0  0  0
  1  5  1  0  0  0  0
  2  3  2  0  0  0  0
  2 13  1  0  0  0  0
  3  4  1  0  0  0  0
  4  5  1  0  0  0  0
  4 12  1  0  0  0  0
  4 23  1  1  0  0  0
  5  6  1  0  0  0  0
  5 24  1  1  0  0  0
  6  7  1  0  0  0  0
  6 25  1  0  0  0  0
  6 26  1  0  0  0  0
  7  8  2  0  0  0  0
  7 12  1  0  0  0  0
  8  9  1  0  0  0  0
  8 27  1  0  0  0  0
  9 10  2  0  0  0  0
  9 28  1  0  0  0  0
 10 11  1  0  0  0  0
 10 29  1  0  0  0  0
 11 12  2  0  0  0  0
 11 30  1  0  0  0  0
 13 14  2  0  0  0  0
 13 18  1  0  0  0  0
 14 15  1  0  0  0  0
 14 31  1  0  0  0  0
 15 16  2  0  0  0  0
 15 32  1  0  0  0  0
 16 17  1  0  0  0  0
 16 19  1  0  0  0  0
 17 18  2  0  0  0  0
 17 33  1  0  0  0  0
 19 20  1  0  0  0  0
 19 21  1  0  0  0  0
 19 22  1  0  0  0  0
M  END
$$$$
