Title Card Required
 OpenBabel03192317493D

 82 86  0  0  1  0  0  0  0  0999 V2000
   -4.8054    1.1373    0.2709 C   0  0  0  0  0  0  0  0  0  0  0  0
   -4.1080   -0.2159    0.5425 C   0  0  1  0  0  0  0  0  0  0  0  0
   -4.2442   -1.0787   -0.5805 O   0  0  0  0  0  0  0  0  0  0  0  0
   -3.1095   -1.1644   -1.3154 C   0  0  0  0  0  0  0  0  0  0  0  0
   -1.9265   -0.6786   -0.7381 C   0  0  0  0  0  0  0  0  0  0  0  0
   -2.2717   -0.0049    0.9323 P   0  0  2  0  0  0  0  0  0  0  0  0
   -0.7348   -0.7037   -1.4804 C   0  0  0  0  0  0  0  0  0  0  0  0
    0.5668   -0.2496   -0.9093 C   0  0  0  0  0  0  0  0  0  0  0  0
    1.6340   -1.1667   -0.8407 C   0  0  0  0  0  0  0  0  0  0  0  0
    1.5086   -2.4068   -1.4093 O   0  0  0  0  0  0  0  0  0  0  0  0
    0.8422   -3.3914   -0.6543 C   0  0  0  0  0  0  0  0  0  0  0  0
    2.8490   -0.8244   -0.2384 C   0  0  0  0  0  0  0  0  0  0  0  0
    3.0049    0.4958    0.1884 C   0  0  0  0  0  0  0  0  0  0  0  0
    2.0249    1.4776    0.0338 C   0  0  0  0  0  0  0  0  0  0  0  0
    0.7710    1.0744   -0.4758 C   0  0  0  0  0  0  0  0  0  0  0  0
   -0.7611   -1.2439   -2.7738 C   0  0  0  0  0  0  0  0  0  0  0  0
   -1.9436   -1.7452   -3.3156 C   0  0  0  0  0  0  0  0  0  0  0  0
   -3.1348   -1.7138   -2.5939 C   0  0  0  0  0  0  0  0  0  0  0  0
   -0.2615    1.9436   -0.6771 O   0  0  0  0  0  0  0  0  0  0  0  0
   -0.6292    2.8598    0.3315 C   0  0  0  0  0  0  0  0  0  0  0  0
    2.3648    2.9365    0.2586 C   0  0  0  0  0  0  0  0  0  0  0  0
    3.9564   -1.8363   -0.0725 C   0  0  0  0  0  0  0  0  0  0  0  0
    4.2571   -2.2181    1.3883 C   0  0  0  0  0  0  0  0  0  0  0  0
    5.6286   -2.9210    1.3379 C   0  0  0  0  0  0  0  0  0  0  0  0
    6.2690   -2.4968   -0.0104 C   0  0  0  0  0  0  0  0  0  0  0  0
    5.3434   -1.4133   -0.5771 C   0  0  0  0  0  0  0  0  0  0  0  0
    2.2636    3.7895   -1.0193 C   0  0  0  0  0  0  0  0  0  0  0  0
    2.9141    5.1259   -0.6277 C   0  0  0  0  0  0  0  0  0  0  0  0
    3.8884    4.7850    0.5320 C   0  0  0  0  0  0  0  0  0  0  0  0
    3.7923    3.2611    0.7115 C   0  0  0  0  0  0  0  0  0  0  0  0
   -4.2481    1.8136   -0.9827 C   0  0  0  0  0  0  0  0  0  0  0  0
   -4.6276    1.9493    1.4143 O   0  0  0  0  0  0  0  0  0  0  0  0
   -6.3044    0.9122    0.1327 C   0  0  0  0  0  0  0  0  0  0  0  0
   -1.9762   -1.4513    2.1132 C   0  0  0  0  0  0  0  0  0  0  0  0
   -2.5492   -2.7753    1.6115 C   0  0  0  0  0  0  0  0  0  0  0  0
   -0.4600   -1.5590    2.3056 C   0  0  0  0  0  0  0  0  0  0  0  0
   -2.6243   -1.0583    3.4456 C   0  0  0  0  0  0  0  0  0  0  0  0
   -4.6173   -0.6863    1.3970 H   0  0  0  0  0  0  0  0  0  0  0  0
    1.3248   -3.5324    0.3286 H   0  0  0  0  0  0  0  0  0  0  0  0
   -0.2192   -3.1333   -0.5047 H   0  0  0  0  0  0  0  0  0  0  0  0
    0.9010   -4.3274   -1.2231 H   0  0  0  0  0  0  0  0  0  0  0  0
    3.9628    0.7841    0.6238 H   0  0  0  0  0  0  0  0  0  0  0  0
    0.1646   -1.2799   -3.3470 H   0  0  0  0  0  0  0  0  0  0  0  0
   -1.9387   -2.1592   -4.3252 H   0  0  0  0  0  0  0  0  0  0  0  0
   -4.0737   -2.0878   -3.0019 H   0  0  0  0  0  0  0  0  0  0  0  0
   -0.3730    2.4778    1.3308 H   0  0  0  0  0  0  0  0  0  0  0  0
   -0.1619    3.8436    0.1721 H   0  0  0  0  0  0  0  0  0  0  0  0
   -1.7189    2.9805    0.2778 H   0  0  0  0  0  0  0  0  0  0  0  0
    1.6929    3.3711    1.0159 H   0  0  0  0  0  0  0  0  0  0  0  0
    3.6696   -2.7461   -0.6214 H   0  0  0  0  0  0  0  0  0  0  0  0
    4.3177   -1.2939    1.9860 H   0  0  0  0  0  0  0  0  0  0  0  0
    3.4647   -2.8360    1.8354 H   0  0  0  0  0  0  0  0  0  0  0  0
    6.2524   -2.6373    2.1967 H   0  0  0  0  0  0  0  0  0  0  0  0
    5.5123   -4.0129    1.3831 H   0  0  0  0  0  0  0  0  0  0  0  0
    7.3047   -2.1483    0.1022 H   0  0  0  0  0  0  0  0  0  0  0  0
    6.2943   -3.3536   -0.6997 H   0  0  0  0  0  0  0  0  0  0  0  0
    5.3890   -1.3246   -1.6715 H   0  0  0  0  0  0  0  0  0  0  0  0
    5.6059   -0.4297   -0.1539 H   0  0  0  0  0  0  0  0  0  0  0  0
    2.8518    3.2848   -1.8029 H   0  0  0  0  0  0  0  0  0  0  0  0
    1.2392    3.8858   -1.4037 H   0  0  0  0  0  0  0  0  0  0  0  0
    3.4239    5.5960   -1.4794 H   0  0  0  0  0  0  0  0  0  0  0  0
    2.1483    5.8384   -0.2871 H   0  0  0  0  0  0  0  0  0  0  0  0
    4.9181    5.1074    0.3277 H   0  0  0  0  0  0  0  0  0  0  0  0
    3.5753    5.2937    1.4553 H   0  0  0  0  0  0  0  0  0  0  0  0
    4.0121    2.9301    1.7369 H   0  0  0  0  0  0  0  0  0  0  0  0
    4.5072    2.7617    0.0382 H   0  0  0  0  0  0  0  0  0  0  0  0
   -4.6997    2.8111   -1.0789 H   0  0  0  0  0  0  0  0  0  0  0  0
   -3.1528    1.9258   -0.9394 H   0  0  0  0  0  0  0  0  0  0  0  0
   -4.4847    1.2312   -1.8844 H   0  0  0  0  0  0  0  0  0  0  0  0
   -3.6784    2.0845    1.5391 H   0  0  0  0  0  0  0  0  0  0  0  0
   -6.5059    0.1914   -0.6705 H   0  0  0  0  0  0  0  0  0  0  0  0
   -6.7085    0.5237    1.0781 H   0  0  0  0  0  0  0  0  0  0  0  0
   -6.8077    1.8622   -0.0941 H   0  0  0  0  0  0  0  0  0  0  0  0
   -2.1043   -3.0659    0.6483 H   0  0  0  0  0  0  0  0  0  0  0  0
   -2.3374   -3.5749    2.3407 H   0  0  0  0  0  0  0  0  0  0  0  0
   -3.6391   -2.7249    1.4725 H   0  0  0  0  0  0  0  0  0  0  0  0
   -0.0340   -0.6150    2.6802 H   0  0  0  0  0  0  0  0  0  0  0  0
   -0.2310   -2.3531    3.0356 H   0  0  0  0  0  0  0  0  0  0  0  0
    0.0507   -1.8023    1.3642 H   0  0  0  0  0  0  0  0  0  0  0  0
   -2.2163   -0.1088    3.8249 H   0  0  0  0  0  0  0  0  0  0  0  0
   -3.7164   -0.9492    3.3639 H   0  0  0  0  0  0  0  0  0  0  0  0
   -2.4240   -1.8385    4.1975 H   0  0  0  0  0  0  0  0  0  0  0  0
  1  2  1  0  0  0  0
  1 31  1  0  0  0  0
  1 32  1  0  0  0  0
  1 33  1  0  0  0  0
  2  3  1  0  0  0  0
  2  6  1  0  0  0  0
  2 38  1  1  0  0  0
  3  4  1  0  0  0  0
  4  5  2  0  0  0  0
  4 18  1  0  0  0  0
  5  6  1  0  0  0  0
  5  7  1  0  0  0  0
  6 34  1  1  0  0  0
  7  8  1  0  0  0  0
  7 16  2  0  0  0  0
  8  9  2  0  0  0  0
  8 15  1  0  0  0  0
  9 10  1  0  0  0  0
  9 12  1  0  0  0  0
 10 11  1  0  0  0  0
 11 39  1  0  0  0  0
 11 40  1  0  0  0  0
 11 41  1  0  0  0  0
 12 13  2  0  0  0  0
 12 22  1  0  0  0  0
 13 14  1  0  0  0  0
 13 42  1  0  0  0  0
 14 15  2  0  0  0  0
 14 21  1  0  0  0  0
 15 19  1  0  0  0  0
 16 17  1  0  0  0  0
 16 43  1  0  0  0  0
 17 18  2  0  0  0  0
 17 44  1  0  0  0  0
 18 45  1  0  0  0  0
 19 20  1  0  0  0  0
 20 46  1  0  0  0  0
 20 47  1  0  0  0  0
 20 48  1  0  0  0  0
 21 27  1  0  0  0  0
 21 30  1  0  0  0  0
 21 49  1  0  0  0  0
 22 23  1  0  0  0  0
 22 26  1  0  0  0  0
 22 50  1  0  0  0  0
 23 24  1  0  0  0  0
 23 51  1  0  0  0  0
 23 52  1  0  0  0  0
 24 25  1  0  0  0  0
 24 53  1  0  0  0  0
 24 54  1  0  0  0  0
 25 26  1  0  0  0  0
 25 55  1  0  0  0  0
 25 56  1  0  0  0  0
 26 57  1  0  0  0  0
 26 58  1  0  0  0  0
 27 28  1  0  0  0  0
 27 59  1  0  0  0  0
 27 60  1  0  0  0  0
 28 29  1  0  0  0  0
 28 61  1  0  0  0  0
 28 62  1  0  0  0  0
 29 30  1  0  0  0  0
 29 63  1  0  0  0  0
 29 64  1  0  0  0  0
 30 65  1  0  0  0  0
 30 66  1  0  0  0  0
 31 67  1  0  0  0  0
 31 68  1  0  0  0  0
 31 69  1  0  0  0  0
 32 70  1  0  0  0  0
 33 71  1  0  0  0  0
 33 72  1  0  0  0  0
 33 73  1  0  0  0  0
 34 35  1  0  0  0  0
 34 36  1  0  0  0  0
 34 37  1  0  0  0  0
 35 74  1  0  0  0  0
 35 75  1  0  0  0  0
 35 76  1  0  0  0  0
 36 77  1  0  0  0  0
 36 78  1  0  0  0  0
 36 79  1  0  0  0  0
 37 80  1  0  0  0  0
 37 81  1  0  0  0  0
 37 82  1  0  0  0  0
M  END
$$$$
