Title Card Required
 OpenBabel03192317513D

 72 76  0  0  1  0  0  0  0  0999 V2000
    0.6332    4.8286   -1.9727 C   0  0  0  0  0  0  0  0  0  0  0  0
    0.0648    3.5921   -1.2784 C   0  0  0  0  0  0  0  0  0  0  0  0
   -0.6000    2.6515   -2.2724 C   0  0  0  0  0  0  0  0  0  0  0  0
    1.5685    2.6999   -0.6443 S   0  0  1  0  0  0  0  0  0  0  0  0
    2.2713    3.7281    0.1974 O   0  0  0  0  0  0  0  0  0  0  0  0
    0.8623    1.5441    0.4257 N   0  0  0  0  0  0  0  0  0  0  0  0
   -0.8491    3.9858   -0.1283 C   0  0  0  0  0  0  0  0  0  0  0  0
    0.7412    1.9697    1.8168 C   0  0  0  0  0  0  0  0  0  0  0  0
    1.2980    0.1616    0.1639 C   0  0  1  0  0  0  0  0  0  0  0  0
    2.8070   -0.0746    0.1776 C   0  0  0  0  0  0  0  0  0  0  0  0
    3.6903    0.8387    0.7088 C   0  0  0  0  0  0  0  0  0  0  0  0
    5.0860    0.5873    0.7289 C   0  0  0  0  0  0  0  0  0  0  0  0
    5.5889   -0.5780    0.2157 C   0  0  0  0  0  0  0  0  0  0  0  0
    4.7163   -1.5474   -0.3523 C   0  0  0  0  0  0  0  0  0  0  0  0
    5.2241   -2.7553   -0.9022 C   0  0  0  0  0  0  0  0  0  0  0  0
    4.3832   -3.6885   -1.4561 C   0  0  0  0  0  0  0  0  0  0  0  0
    2.9890   -3.4502   -1.4811 C   0  0  0  0  0  0  0  0  0  0  0  0
    2.4673   -2.2928   -0.9537 C   0  0  0  0  0  0  0  0  0  0  0  0
    3.3115   -1.3013   -0.3746 C   0  0  0  0  0  0  0  0  0  0  0  0
    0.5830   -0.7982    1.1243 C   0  0  0  0  0  0  0  0  0  0  0  0
   -0.7411   -1.2300    0.9060 C   0  0  0  0  0  0  0  0  0  0  0  0
   -1.3343   -2.1170    1.8171 C   0  0  0  0  0  0  0  0  0  0  0  0
   -0.6484   -2.5596    2.9438 C   0  0  0  0  0  0  0  0  0  0  0  0
    0.6553   -2.1237    3.1671 C   0  0  0  0  0  0  0  0  0  0  0  0
    1.2597   -1.2586    2.2609 C   0  0  0  0  0  0  0  0  0  0  0  0
   -1.6686   -0.6401   -0.5821 P   0  0  0  0  0  0  0  0  0  0  0  0
   -2.9247   -1.9775   -0.7741 C   0  0  0  0  0  0  0  0  0  0  0  0
   -4.2471   -1.8907   -0.3235 C   0  0  0  0  0  0  0  0  0  0  0  0
   -5.1299   -2.9538   -0.5198 C   0  0  0  0  0  0  0  0  0  0  0  0
   -4.7025   -4.1143   -1.1618 C   0  0  0  0  0  0  0  0  0  0  0  0
   -3.3870   -4.2081   -1.6176 C   0  0  0  0  0  0  0  0  0  0  0  0
   -2.5092   -3.1429   -1.4336 C   0  0  0  0  0  0  0  0  0  0  0  0
   -2.6936    0.7164    0.1308 C   0  0  0  0  0  0  0  0  0  0  0  0
   -3.4381    1.4908   -0.7715 C   0  0  0  0  0  0  0  0  0  0  0  0
   -4.2307    2.5435   -0.3215 C   0  0  0  0  0  0  0  0  0  0  0  0
   -4.2772    2.8501    1.0394 C   0  0  0  0  0  0  0  0  0  0  0  0
   -3.5425    2.0869    1.9444 C   0  0  0  0  0  0  0  0  0  0  0  0
   -2.7613    1.0199    1.4950 C   0  0  0  0  0  0  0  0  0  0  0  0
    1.3477    4.5522   -2.7638 H   0  0  0  0  0  0  0  0  0  0  0  0
    1.1480    5.4739   -1.2494 H   0  0  0  0  0  0  0  0  0  0  0  0
   -0.1906    5.3893   -2.4400 H   0  0  0  0  0  0  0  0  0  0  0  0
    0.0637    2.4443   -3.1255 H   0  0  0  0  0  0  0  0  0  0  0  0
   -0.8661    1.6968   -1.7976 H   0  0  0  0  0  0  0  0  0  0  0  0
   -1.5241    3.1109   -2.6571 H   0  0  0  0  0  0  0  0  0  0  0  0
   -0.2928    4.5768    0.6144 H   0  0  0  0  0  0  0  0  0  0  0  0
   -1.6698    4.6093   -0.5172 H   0  0  0  0  0  0  0  0  0  0  0  0
   -1.2938    3.1046    0.3564 H   0  0  0  0  0  0  0  0  0  0  0  0
   -0.2592    1.7353    2.2097 H   0  0  0  0  0  0  0  0  0  0  0  0
    1.4952    1.4870    2.4579 H   0  0  0  0  0  0  0  0  0  0  0  0
    0.9123    3.0516    1.8741 H   0  0  0  0  0  0  0  0  0  0  0  0
    0.9453   -0.0763   -0.8530 H   0  0  0  0  0  0  0  0  0  0  0  0
    3.3350    1.7952    1.0958 H   0  0  0  0  0  0  0  0  0  0  0  0
    5.7535    1.3384    1.1532 H   0  0  0  0  0  0  0  0  0  0  0  0
    6.6622   -0.7784    0.2258 H   0  0  0  0  0  0  0  0  0  0  0  0
    6.3025   -2.9252   -0.8766 H   0  0  0  0  0  0  0  0  0  0  0  0
    4.7852   -4.6119   -1.8755 H   0  0  0  0  0  0  0  0  0  0  0  0
    2.3208   -4.1928   -1.9198 H   0  0  0  0  0  0  0  0  0  0  0  0
    1.3875   -2.1426   -0.9780 H   0  0  0  0  0  0  0  0  0  0  0  0
   -2.3540   -2.4648    1.6400 H   0  0  0  0  0  0  0  0  0  0  0  0
   -1.1301   -3.2471    3.6408 H   0  0  0  0  0  0  0  0  0  0  0  0
    1.2103   -2.4639    4.0427 H   0  0  0  0  0  0  0  0  0  0  0  0
    2.2899   -0.9409    2.4299 H   0  0  0  0  0  0  0  0  0  0  0  0
   -4.5921   -0.9903    0.1891 H   0  0  0  0  0  0  0  0  0  0  0  0
   -6.1583   -2.8731   -0.1636 H   0  0  0  0  0  0  0  0  0  0  0  0
   -5.3955   -4.9436   -1.3116 H   0  0  0  0  0  0  0  0  0  0  0  0
   -3.0466   -5.1109   -2.1275 H   0  0  0  0  0  0  0  0  0  0  0  0
   -1.4836   -3.2155   -1.8065 H   0  0  0  0  0  0  0  0  0  0  0  0
   -3.3931    1.2649   -1.8404 H   0  0  0  0  0  0  0  0  0  0  0  0
   -4.8071    3.1337   -1.0360 H   0  0  0  0  0  0  0  0  0  0  0  0
   -4.8877    3.6827    1.3923 H   0  0  0  0  0  0  0  0  0  0  0  0
   -3.5784    2.3173    3.0105 H   0  0  0  0  0  0  0  0  0  0  0  0
   -2.2030    0.4193    2.2157 H   0  0  0  0  0  0  0  0  0  0  0  0
  1  2  1  0  0  0  0
  1 39  1  0  0  0  0
  1 40  1  0  0  0  0
  1 41  1  0  0  0  0
  2  3  1  0  0  0  0
  2  4  1  0  0  0  0
  2  7  1  0  0  0  0
  3 42  1  0  0  0  0
  3 43  1  0  0  0  0
  3 44  1  0  0  0  0
  4  5  2  1  0  0  0
  4  6  1  0  0  0  0
  6  8  1  0  0  0  0
  6  9  1  0  0  0  0
  7 45  1  0  0  0  0
  7 46  1  0  0  0  0
  7 47  1  0  0  0  0
  8 48  1  0  0  0  0
  8 49  1  0  0  0  0
  8 50  1  0  0  0  0
  9 10  1  0  0  0  0
  9 20  1  0  0  0  0
  9 51  1  6  0  0  0
 10 11  2  0  0  0  0
 10 19  1  0  0  0  0
 11 12  1  0  0  0  0
 11 52  1  0  0  0  0
 12 13  2  0  0  0  0
 12 53  1  0  0  0  0
 13 14  1  0  0  0  0
 13 54  1  0  0  0  0
 14 15  2  0  0  0  0
 14 19  1  0  0  0  0
 15 16  1  0  0  0  0
 15 55  1  0  0  0  0
 16 17  2  0  0  0  0
 16 56  1  0  0  0  0
 17 18  1  0  0  0  0
 17 57  1  0  0  0  0
 18 19  2  0  0  0  0
 18 58  1  0  0  0  0
 20 21  2  0  0  0  0
 20 25  1  0  0  0  0
 21 22  1  0  0  0  0
 21 26  1  0  0  0  0
 22 23  2  0  0  0  0
 22 59  1  0  0  0  0
 23 24  1  0  0  0  0
 23 60  1  0  0  0  0
 24 25  2  0  0  0  0
 24 61  1  0  0  0  0
 25 62  1  0  0  0  0
 26 27  1  0  0  0  0
 26 33  1  0  0  0  0
 27 28  2  0  0  0  0
 27 32  1  0  0  0  0
 28 29  1  0  0  0  0
 28 63  1  0  0  0  0
 29 30  2  0  0  0  0
 29 64  1  0  0  0  0
 30 31  1  0  0  0  0
 30 65  1  0  0  0  0
 31 32  2  0  0  0  0
 31 66  1  0  0  0  0
 32 67  1  0  0  0  0
 33 34  2  0  0  0  0
 33 38  1  0  0  0  0
 34 35  1  0  0  0  0
 34 68  1  0  0  0  0
 35 36  2  0  0  0  0
 35 69  1  0  0  0  0
 36 37  1  0  0  0  0
 36 70  1  0  0  0  0
 37 38  2  0  0  0  0
 37 71  1  0  0  0  0
 38 72  1  0  0  0  0
M  END
$$$$
