Title Card Required
 OpenBabel03192317563D

 42 45  0  0  1  0  0  0  0  0999 V2000
   -0.6745    0.9468   -0.5838 O   0  0  0  0  0  0  0  0  0  0  0  0
   -1.3480   -0.1984   -0.8036 C   0  0  0  0  0  0  0  0  0  0  0  0
   -0.7288   -1.1702   -1.3402 N   0  0  0  0  0  0  0  0  0  0  0  0
    0.6599   -0.7491   -1.4903 C   0  0  1  0  0  0  0  0  0  0  0  0
    0.5731    0.8081   -1.2666 C   0  0  2  0  0  0  0  0  0  0  0  0
    1.6995    1.4387   -0.5016 C   0  0  0  0  0  0  0  0  0  0  0  0
    1.7194    1.4071    0.8952 C   0  0  0  0  0  0  0  0  0  0  0  0
    2.8253    1.8903    1.5887 C   0  0  0  0  0  0  0  0  0  0  0  0
    3.9186    2.4104    0.8943 C   0  0  0  0  0  0  0  0  0  0  0  0
    3.8960    2.4575   -0.4981 C   0  0  0  0  0  0  0  0  0  0  0  0
    2.7867    1.9760   -1.1925 C   0  0  0  0  0  0  0  0  0  0  0  0
    1.5749   -1.4624   -0.5126 C   0  0  0  0  0  0  0  0  0  0  0  0
    2.9541   -1.4730   -0.7478 C   0  0  0  0  0  0  0  0  0  0  0  0
    3.8296   -2.0223    0.1844 C   0  0  0  0  0  0  0  0  0  0  0  0
    3.3335   -2.5839    1.3617 C   0  0  0  0  0  0  0  0  0  0  0  0
    1.9601   -2.5971    1.5928 C   0  0  0  0  0  0  0  0  0  0  0  0
    1.0846   -2.0386    0.6604 C   0  0  0  0  0  0  0  0  0  0  0  0
   -2.7670   -0.2454   -0.3666 C   0  0  0  0  0  0  0  0  0  0  0  0
   -3.4805   -1.4363   -0.5385 C   0  0  0  0  0  0  0  0  0  0  0  0
   -4.8047   -1.4582   -0.1193 C   0  0  0  0  0  0  0  0  0  0  0  0
   -5.3512   -0.3087    0.4465 C   0  0  0  0  0  0  0  0  0  0  0  0
   -4.5540    0.8357    0.5773 C   0  0  0  0  0  0  0  0  0  0  0  0
   -3.2828    0.8542    0.1720 N   0  0  0  0  0  0  0  0  0  0  0  0
   -5.0848    2.1071    1.1797 C   0  0  0  0  0  0  0  0  0  0  0  0
    1.0140   -0.9541   -2.5110 H   0  0  0  0  0  0  0  0  0  0  0  0
    0.4685    1.3000   -2.2482 H   0  0  0  0  0  0  0  0  0  0  0  0
    0.8611    0.9968    1.4293 H   0  0  0  0  0  0  0  0  0  0  0  0
    2.8362    1.8585    2.6792 H   0  0  0  0  0  0  0  0  0  0  0  0
    4.7855    2.7859    1.4403 H   0  0  0  0  0  0  0  0  0  0  0  0
    4.7421    2.8751   -1.0461 H   0  0  0  0  0  0  0  0  0  0  0  0
    2.7675    2.0141   -2.2848 H   0  0  0  0  0  0  0  0  0  0  0  0
    3.3479   -1.0295   -1.6657 H   0  0  0  0  0  0  0  0  0  0  0  0
    4.9035   -2.0132   -0.0082 H   0  0  0  0  0  0  0  0  0  0  0  0
    4.0184   -3.0146    2.0938 H   0  0  0  0  0  0  0  0  0  0  0  0
    1.5634   -3.0438    2.5060 H   0  0  0  0  0  0  0  0  0  0  0  0
    0.0087   -2.0544    0.8411 H   0  0  0  0  0  0  0  0  0  0  0  0
   -2.9847   -2.2955   -0.9891 H   0  0  0  0  0  0  0  0  0  0  0  0
   -5.4070   -2.3614   -0.2297 H   0  0  0  0  0  0  0  0  0  0  0  0
   -6.3874   -0.2908    0.7869 H   0  0  0  0  0  0  0  0  0  0  0  0
   -4.4826    2.3830    2.0566 H   0  0  0  0  0  0  0  0  0  0  0  0
   -4.9936    2.9280    0.4549 H   0  0  0  0  0  0  0  0  0  0  0  0
   -6.1347    2.0090    1.4816 H   0  0  0  0  0  0  0  0  0  0  0  0
  1  2  1  0  0  0  0
  1  5  1  0  0  0  0
  2  3  2  0  0  0  0
  2 18  1  0  0  0  0
  3  4  1  0  0  0  0
  4  5  1  0  0  0  0
  4 12  1  0  0  0  0
  4 25  1  6  0  0  0
  5  6  1  0  0  0  0
  5 26  1  6  0  0  0
  6  7  2  0  0  0  0
  6 11  1  0  0  0  0
  7  8  1  0  0  0  0
  7 27  1  0  0  0  0
  8  9  2  0  0  0  0
  8 28  1  0  0  0  0
  9 10  1  0  0  0  0
  9 29  1  0  0  0  0
 10 11  2  0  0  0  0
 10 30  1  0  0  0  0
 11 31  1  0  0  0  0
 12 13  2  0  0  0  0
 12 17  1  0  0  0  0
 13 14  1  0  0  0  0
 13 32  1  0  0  0  0
 14 15  2  0  0  0  0
 14 33  1  0  0  0  0
 15 16  1  0  0  0  0
 15 34  1  0  0  0  0
 16 17  2  0  0  0  0
 16 35  1  0  0  0  0
 17 36  1  0  0  0  0
 18 19  2  0  0  0  0
 18 23  1  0  0  0  0
 19 20  1  0  0  0  0
 19 37  1  0  0  0  0
 20 21  2  0  0  0  0
 20 38  1  0  0  0  0
 21 22  1  0  0  0  0
 21 39  1  0  0  0  0
 22 23  2  0  0  0  0
 22 24  1  0  0  0  0
 24 40  1  0  0  0  0
 24 41  1  0  0  0  0
 24 42  1  0  0  0  0
M  END
$$$$
