Title Card Required
 OpenBabel03192317443D

 32 34  0  0  1  0  0  0  0  0999 V2000
    0.7435   -1.2533   -0.0631 C   0  0  0  0  0  0  0  0  0  0  0  0
    1.4962   -0.1556    0.3887 C   0  0  0  0  0  0  0  0  0  0  0  0
    2.8822   -0.1912    0.2523 C   0  0  0  0  0  0  0  0  0  0  0  0
    3.4681   -1.3147   -0.3200 C   0  0  0  0  0  0  0  0  0  0  0  0
    2.6370   -2.3631   -0.7177 C   0  0  0  0  0  0  0  0  0  0  0  0
    1.3159   -2.3333   -0.5898 N   0  0  0  0  0  0  0  0  0  0  0  0
   -0.7434   -1.2534    0.0630 C   0  0  0  0  0  0  0  0  0  0  0  0
   -1.4962   -0.1556   -0.3887 C   0  0  0  0  0  0  0  0  0  0  0  0
   -2.8822   -0.1913   -0.2522 C   0  0  0  0  0  0  0  0  0  0  0  0
   -3.4680   -1.3150    0.3201 C   0  0  0  0  0  0  0  0  0  0  0  0
   -2.6368   -2.3633    0.7176 C   0  0  0  0  0  0  0  0  0  0  0  0
   -1.3157   -2.3334    0.5897 N   0  0  0  0  0  0  0  0  0  0  0  0
   -0.8864    0.8902   -1.0143 O   0  0  0  0  0  0  0  0  0  0  0  0
   -0.7110    2.0988   -0.2777 C   0  0  1  0  0  0  0  0  0  0  0  0
    0.7109    2.0988    0.2777 C   0  0  2  0  0  0  0  0  0  0  0  0
    0.8862    0.8903    1.0143 O   0  0  0  0  0  0  0  0  0  0  0  0
   -1.0012    3.2589   -1.2094 C   0  0  0  0  0  0  0  0  0  0  0  0
    1.0010    3.2590    1.2094 C   0  0  0  0  0  0  0  0  0  0  0  0
    3.4768    0.6506    0.6130 H   0  0  0  0  0  0  0  0  0  0  0  0
    4.5490   -1.3858   -0.4442 H   0  0  0  0  0  0  0  0  0  0  0  0
    3.0636   -3.2675   -1.1618 H   0  0  0  0  0  0  0  0  0  0  0  0
   -3.4769    0.6504   -0.6128 H   0  0  0  0  0  0  0  0  0  0  0  0
   -4.5489   -1.3861    0.4444 H   0  0  0  0  0  0  0  0  0  0  0  0
   -3.0633   -3.2678    1.1617 H   0  0  0  0  0  0  0  0  0  0  0  0
   -1.4102    2.1015    0.5779 H   0  0  0  0  0  0  0  0  0  0  0  0
    1.4100    2.1015   -0.5779 H   0  0  0  0  0  0  0  0  0  0  0  0
   -2.0149    3.1602   -1.6187 H   0  0  0  0  0  0  0  0  0  0  0  0
   -0.9284    4.2214   -0.6864 H   0  0  0  0  0  0  0  0  0  0  0  0
   -0.2925    3.2539   -2.0503 H   0  0  0  0  0  0  0  0  0  0  0  0
    2.0147    3.1603    1.6187 H   0  0  0  0  0  0  0  0  0  0  0  0
    0.9281    4.2215    0.6864 H   0  0  0  0  0  0  0  0  0  0  0  0
    0.2923    3.2539    2.0503 H   0  0  0  0  0  0  0  0  0  0  0  0
  1  2  2  0  0  0  0
  1  6  1  0  0  0  0
  1  7  1  0  0  0  0
  2  3  1  0  0  0  0
  2 16  1  0  0  0  0
  3  4  2  0  0  0  0
  3 19  1  0  0  0  0
  4  5  1  0  0  0  0
  4 20  1  0  0  0  0
  5  6  2  0  0  0  0
  5 21  1  0  0  0  0
  7  8  2  0  0  0  0
  7 12  1  0  0  0  0
  8  9  1  0  0  0  0
  8 13  1  0  0  0  0
  9 10  2  0  0  0  0
  9 22  1  0  0  0  0
 10 11  1  0  0  0  0
 10 23  1  0  0  0  0
 11 12  2  0  0  0  0
 11 24  1  0  0  0  0
 13 14  1  0  0  0  0
 14 15  1  0  0  0  0
 14 17  1  0  0  0  0
 14 25  1  1  0  0  0
 15 16  1  0  0  0  0
 15 18  1  0  0  0  0
 15 26  1  6  0  0  0
 17 27  1  0  0  0  0
 17 28  1  0  0  0  0
 17 29  1  0  0  0  0
 18 30  1  0  0  0  0
 18 31  1  0  0  0  0
 18 32  1  0  0  0  0
M  END
$$$$
