Title Card Required
 OpenBabel03192317423D

 64 66  0  0  0  0  0  0  0  0999 V2000
   -3.9291    1.4292    0.2973 C   0  0  0  0  0  0  0  0  0  0  0  0
   -4.3692    0.3644   -0.5340 O   0  0  0  0  0  0  0  0  0  0  0  0
   -3.3381   -0.2161   -1.1914 C   0  0  0  0  0  0  0  0  0  0  0  0
   -2.0423    0.0699   -0.7377 C   0  0  0  0  0  0  0  0  0  0  0  0
   -2.1118    1.1992    0.7161 P   0  0  2  0  0  0  0  0  0  0  0  0
   -0.9377   -0.4938   -1.3981 C   0  0  0  0  0  0  0  0  0  0  0  0
    0.4537   -0.2545   -0.9190 C   0  0  0  0  0  0  0  0  0  0  0  0
    1.2502   -1.3424   -0.5228 C   0  0  0  0  0  0  0  0  0  0  0  0
    2.5065   -1.1430    0.0651 C   0  0  0  0  0  0  0  0  0  0  0  0
    2.9745    0.1674    0.1459 C   0  0  0  0  0  0  0  0  0  0  0  0
    2.2797    1.2706   -0.3576 C   0  0  0  0  0  0  0  0  0  0  0  0
    0.9883    1.0500   -0.8704 C   0  0  0  0  0  0  0  0  0  0  0  0
   -1.1678   -1.3490   -2.4835 C   0  0  0  0  0  0  0  0  0  0  0  0
   -2.4667   -1.6357   -2.9026 C   0  0  0  0  0  0  0  0  0  0  0  0
   -3.5699   -1.0744   -2.2638 C   0  0  0  0  0  0  0  0  0  0  0  0
    0.8241   -2.6238   -0.7574 O   0  0  0  0  0  0  0  0  0  0  0  0
   -0.0555   -3.1929    0.1838 C   0  0  0  0  0  0  0  0  0  0  0  0
    0.2322    2.0197   -1.4516 O   0  0  0  0  0  0  0  0  0  0  0  0
   -0.0037    3.2644   -0.8312 C   0  0  0  0  0  0  0  0  0  0  0  0
    3.3406   -2.3061    0.5675 C   0  0  0  0  0  0  0  0  0  0  0  0
    4.7027   -2.3689   -0.1289 C   0  0  0  0  0  0  0  0  0  0  0  0
    3.5028   -2.2464    2.0896 C   0  0  0  0  0  0  0  0  0  0  0  0
    2.9853    2.6174   -0.4138 C   0  0  0  0  0  0  0  0  0  0  0  0
    3.1739    3.2205    0.9816 C   0  0  0  0  0  0  0  0  0  0  0  0
    4.3290    2.5117   -1.1445 C   0  0  0  0  0  0  0  0  0  0  0  0
   -2.2172    0.0249    2.2005 C   0  0  0  0  0  0  0  0  0  0  0  0
   -3.1339   -1.1764    1.9794 C   0  0  0  0  0  0  0  0  0  0  0  0
   -0.7839   -0.4316    2.4895 C   0  0  0  0  0  0  0  0  0  0  0  0
   -2.7222    0.8605    3.3820 C   0  0  0  0  0  0  0  0  0  0  0  0
   -4.0505    2.3803   -0.2485 H   0  0  0  0  0  0  0  0  0  0  0  0
   -4.5645    1.4617    1.1928 H   0  0  0  0  0  0  0  0  0  0  0  0
    3.9684    0.3341    0.5714 H   0  0  0  0  0  0  0  0  0  0  0  0
   -0.3135   -1.8003   -2.9871 H   0  0  0  0  0  0  0  0  0  0  0  0
   -2.6224   -2.3050   -3.7504 H   0  0  0  0  0  0  0  0  0  0  0  0
   -4.5926   -1.2766   -2.5810 H   0  0  0  0  0  0  0  0  0  0  0  0
    0.3840   -3.1837    1.1967 H   0  0  0  0  0  0  0  0  0  0  0  0
   -1.0208   -2.6610    0.2030 H   0  0  0  0  0  0  0  0  0  0  0  0
   -0.2288   -4.2312   -0.1242 H   0  0  0  0  0  0  0  0  0  0  0  0
    0.2923    3.2538    0.2279 H   0  0  0  0  0  0  0  0  0  0  0  0
    0.5300    4.0688   -1.3600 H   0  0  0  0  0  0  0  0  0  0  0  0
   -1.0823    3.4682   -0.8817 H   0  0  0  0  0  0  0  0  0  0  0  0
    2.7949   -3.2254    0.3123 H   0  0  0  0  0  0  0  0  0  0  0  0
    5.3108   -1.4816    0.1069 H   0  0  0  0  0  0  0  0  0  0  0  0
    5.2660   -3.2549    0.2001 H   0  0  0  0  0  0  0  0  0  0  0  0
    4.5853   -2.4187   -1.2203 H   0  0  0  0  0  0  0  0  0  0  0  0
    2.5259   -2.2274    2.5952 H   0  0  0  0  0  0  0  0  0  0  0  0
    4.0669   -3.1169    2.4570 H   0  0  0  0  0  0  0  0  0  0  0  0
    4.0505   -1.3391    2.3893 H   0  0  0  0  0  0  0  0  0  0  0  0
    2.3664    3.2998   -1.0071 H   0  0  0  0  0  0  0  0  0  0  0  0
    3.8027    2.5643    1.6032 H   0  0  0  0  0  0  0  0  0  0  0  0
    3.6684    4.2016    0.9210 H   0  0  0  0  0  0  0  0  0  0  0  0
    2.2135    3.3479    1.5019 H   0  0  0  0  0  0  0  0  0  0  0  0
    4.2021    2.0658   -2.1408 H   0  0  0  0  0  0  0  0  0  0  0  0
    4.7776    3.5090   -1.2650 H   0  0  0  0  0  0  0  0  0  0  0  0
    5.0451    1.8920   -0.5845 H   0  0  0  0  0  0  0  0  0  0  0  0
   -2.7963   -1.7924    1.1329 H   0  0  0  0  0  0  0  0  0  0  0  0
   -3.1426   -1.8125    2.8804 H   0  0  0  0  0  0  0  0  0  0  0  0
   -4.1697   -0.8684    1.7715 H   0  0  0  0  0  0  0  0  0  0  0  0
   -0.1229    0.4253    2.6928 H   0  0  0  0  0  0  0  0  0  0  0  0
   -0.7697   -1.0941    3.3711 H   0  0  0  0  0  0  0  0  0  0  0  0
   -0.3581   -0.9818    1.6402 H   0  0  0  0  0  0  0  0  0  0  0  0
   -2.0929    1.7486    3.5457 H   0  0  0  0  0  0  0  0  0  0  0  0
   -3.7608    1.1953    3.2389 H   0  0  0  0  0  0  0  0  0  0  0  0
   -2.6971    0.2522    4.3006 H   0  0  0  0  0  0  0  0  0  0  0  0
  1  2  1  0  0  0  0
  1  5  1  0  0  0  0
  1 30  1  0  0  0  0
  1 31  1  0  0  0  0
  2  3  1  0  0  0  0
  3  4  2  0  0  0  0
  3 15  1  0  0  0  0
  4  5  1  0  0  0  0
  4  6  1  0  0  0  0
  5 26  1  1  0  0  0
  6  7  1  0  0  0  0
  6 13  2  0  0  0  0
  7  8  2  0  0  0  0
  7 12  1  0  0  0  0
  8  9  1  0  0  0  0
  8 16  1  0  0  0  0
  9 10  2  0  0  0  0
  9 20  1  0  0  0  0
 10 11  1  0  0  0  0
 10 32  1  0  0  0  0
 11 12  2  0  0  0  0
 11 23  1  0  0  0  0
 12 18  1  0  0  0  0
 13 14  1  0  0  0  0
 13 33  1  0  0  0  0
 14 15  2  0  0  0  0
 14 34  1  0  0  0  0
 15 35  1  0  0  0  0
 16 17  1  0  0  0  0
 17 36  1  0  0  0  0
 17 37  1  0  0  0  0
 17 38  1  0  0  0  0
 18 19  1  0  0  0  0
 19 39  1  0  0  0  0
 19 40  1  0  0  0  0
 19 41  1  0  0  0  0
 20 21  1  0  0  0  0
 20 22  1  0  0  0  0
 20 42  1  0  0  0  0
 21 43  1  0  0  0  0
 21 44  1  0  0  0  0
 21 45  1  0  0  0  0
 22 46  1  0  0  0  0
 22 47  1  0  0  0  0
 22 48  1  0  0  0  0
 23 24  1  0  0  0  0
 23 25  1  0  0  0  0
 23 49  1  0  0  0  0
 24 50  1  0  0  0  0
 24 51  1  0  0  0  0
 24 52  1  0  0  0  0
 25 53  1  0  0  0  0
 25 54  1  0  0  0  0
 25 55  1  0  0  0  0
 26 27  1  0  0  0  0
 26 28  1  0  0  0  0
 26 29  1  0  0  0  0
 27 56  1  0  0  0  0
 27 57  1  0  0  0  0
 27 58  1  0  0  0  0
 28 59  1  0  0  0  0
 28 60  1  0  0  0  0
 28 61  1  0  0  0  0
 29 62  1  0  0  0  0
 29 63  1  0  0  0  0
 29 64  1  0  0  0  0
M  END
$$$$
