Title Card Required
 OpenBabel03192317503D

 60 64  0  0  0  0  0  0  0  0999 V2000
    2.5126    0.7415   -0.8722 O   0  0  0  0  0  0  0  0  0  0  0  0
    1.4071    1.4781   -0.5551 C   0  0  0  0  0  0  0  0  0  0  0  0
    0.1682    0.8725   -0.8211 C   0  0  0  0  0  0  0  0  0  0  0  0
   -0.9957    1.6103   -0.5420 C   0  0  0  0  0  0  0  0  0  0  0  0
   -2.1762    1.0244   -0.8854 O   0  0  0  0  0  0  0  0  0  0  0  0
   -3.3549    1.4293   -0.3112 C   0  0  0  0  0  0  0  0  0  0  0  0
   -4.4075    1.7624   -1.1601 C   0  0  0  0  0  0  0  0  0  0  0  0
   -5.6393    2.1219   -0.6145 C   0  0  0  0  0  0  0  0  0  0  0  0
   -5.8133    2.1563    0.7679 C   0  0  0  0  0  0  0  0  0  0  0  0
   -4.7499    1.8196    1.6076 C   0  0  0  0  0  0  0  0  0  0  0  0
   -3.5178    1.4494    1.0756 C   0  0  0  0  0  0  0  0  0  0  0  0
   -0.9293    2.8982   -0.0045 C   0  0  0  0  0  0  0  0  0  0  0  0
    0.3170    3.4631    0.2449 C   0  0  0  0  0  0  0  0  0  0  0  0
    1.4913    2.7690   -0.0287 C   0  0  0  0  0  0  0  0  0  0  0  0
    0.0777   -0.4860   -1.4271 C   0  0  0  0  0  0  0  0  0  0  0  0
   -0.5800   -1.5285   -0.7649 C   0  0  0  0  0  0  0  0  0  0  0  0
   -1.2940   -1.5637    0.9222 P   0  0  1  0  0  0  0  0  0  0  0  0
   -2.0753   -3.1971    0.4211 C   0  0  0  0  0  0  0  0  0  0  0  0
   -1.3775   -3.7361   -0.6952 O   0  0  0  0  0  0  0  0  0  0  0  0
   -0.7133   -2.7785   -1.3827 C   0  0  0  0  0  0  0  0  0  0  0  0
   -0.1673   -3.0321   -2.6386 C   0  0  0  0  0  0  0  0  0  0  0  0
    0.5119   -1.9958   -3.2776 C   0  0  0  0  0  0  0  0  0  0  0  0
    0.6314   -0.7368   -2.6890 C   0  0  0  0  0  0  0  0  0  0  0  0
    3.7279    0.9642   -0.2790 C   0  0  0  0  0  0  0  0  0  0  0  0
    3.8646    1.1408    1.1000 C   0  0  0  0  0  0  0  0  0  0  0  0
    5.1386    1.2900    1.6431 C   0  0  0  0  0  0  0  0  0  0  0  0
    6.2689    1.2561    0.8259 C   0  0  0  0  0  0  0  0  0  0  0  0
    6.1192    1.0718   -0.5478 C   0  0  0  0  0  0  0  0  0  0  0  0
    4.8500    0.9294   -1.1051 C   0  0  0  0  0  0  0  0  0  0  0  0
    0.2045   -2.1546    1.9306 C   0  0  0  0  0  0  0  0  0  0  0  0
    1.2024   -0.9930    1.9460 C   0  0  0  0  0  0  0  0  0  0  0  0
   -0.3156   -2.4186    3.3471 C   0  0  0  0  0  0  0  0  0  0  0  0
    0.8896   -3.4036    1.3780 C   0  0  0  0  0  0  0  0  0  0  0  0
   -4.2416    1.7288   -2.2370 H   0  0  0  0  0  0  0  0  0  0  0  0
   -6.4665    2.3812   -1.2770 H   0  0  0  0  0  0  0  0  0  0  0  0
   -6.7766    2.4423    1.1920 H   0  0  0  0  0  0  0  0  0  0  0  0
   -4.8829    1.8357    2.6905 H   0  0  0  0  0  0  0  0  0  0  0  0
   -2.6814    1.1624    1.7142 H   0  0  0  0  0  0  0  0  0  0  0  0
   -1.8451    3.4528    0.1950 H   0  0  0  0  0  0  0  0  0  0  0  0
    0.3757    4.4754    0.6476 H   0  0  0  0  0  0  0  0  0  0  0  0
    2.4647    3.2218    0.1549 H   0  0  0  0  0  0  0  0  0  0  0  0
   -3.1236   -3.0113    0.1333 H   0  0  0  0  0  0  0  0  0  0  0  0
   -2.0627   -3.9363    1.2342 H   0  0  0  0  0  0  0  0  0  0  0  0
   -0.2829   -4.0169   -3.0908 H   0  0  0  0  0  0  0  0  0  0  0  0
    0.9466   -2.1696   -4.2635 H   0  0  0  0  0  0  0  0  0  0  0  0
    1.1535    0.0666   -3.2094 H   0  0  0  0  0  0  0  0  0  0  0  0
    2.9784    1.1626    1.7353 H   0  0  0  0  0  0  0  0  0  0  0  0
    5.2468    1.4274    2.7201 H   0  0  0  0  0  0  0  0  0  0  0  0
    7.2627    1.3712    1.2599 H   0  0  0  0  0  0  0  0  0  0  0  0
    6.9969    1.0419   -1.1952 H   0  0  0  0  0  0  0  0  0  0  0  0
    4.7044    0.7817   -2.1753 H   0  0  0  0  0  0  0  0  0  0  0  0
    0.7275   -0.0481    2.2610 H   0  0  0  0  0  0  0  0  0  0  0  0
    2.0251   -1.2156    2.6461 H   0  0  0  0  0  0  0  0  0  0  0  0
    1.6445   -0.8418    0.9486 H   0  0  0  0  0  0  0  0  0  0  0  0
   -1.0634   -3.2275    3.3611 H   0  0  0  0  0  0  0  0  0  0  0  0
    0.5161   -2.7254    4.0018 H   0  0  0  0  0  0  0  0  0  0  0  0
   -0.7785   -1.5187    3.7796 H   0  0  0  0  0  0  0  0  0  0  0  0
    0.2153   -4.2716    1.3524 H   0  0  0  0  0  0  0  0  0  0  0  0
    1.2702   -3.2356    0.3597 H   0  0  0  0  0  0  0  0  0  0  0  0
    1.7492   -3.6639    2.0180 H   0  0  0  0  0  0  0  0  0  0  0  0
  1  2  1  0  0  0  0
  1 24  1  0  0  0  0
  2  3  2  0  0  0  0
  2 14  1  0  0  0  0
  3  4  1  0  0  0  0
  3 15  1  0  0  0  0
  4  5  1  0  0  0  0
  4 12  2  0  0  0  0
  5  6  1  0  0  0  0
  6  7  2  0  0  0  0
  6 11  1  0  0  0  0
  7  8  1  0  0  0  0
  7 34  1  0  0  0  0
  8  9  2  0  0  0  0
  8 35  1  0  0  0  0
  9 10  1  0  0  0  0
  9 36  1  0  0  0  0
 10 11  2  0  0  0  0
 10 37  1  0  0  0  0
 11 38  1  0  0  0  0
 12 13  1  0  0  0  0
 12 39  1  0  0  0  0
 13 14  2  0  0  0  0
 13 40  1  0  0  0  0
 14 41  1  0  0  0  0
 15 16  2  0  0  0  0
 15 23  1  0  0  0  0
 16 17  1  0  0  0  0
 16 20  1  0  0  0  0
 17 18  1  0  0  0  0
 17 30  1  1  0  0  0
 18 19  1  0  0  0  0
 18 42  1  0  0  0  0
 18 43  1  0  0  0  0
 19 20  1  0  0  0  0
 20 21  2  0  0  0  0
 21 22  1  0  0  0  0
 21 44  1  0  0  0  0
 22 23  2  0  0  0  0
 22 45  1  0  0  0  0
 23 46  1  0  0  0  0
 24 25  2  0  0  0  0
 24 29  1  0  0  0  0
 25 26  1  0  0  0  0
 25 47  1  0  0  0  0
 26 27  2  0  0  0  0
 26 48  1  0  0  0  0
 27 28  1  0  0  0  0
 27 49  1  0  0  0  0
 28 29  2  0  0  0  0
 28 50  1  0  0  0  0
 29 51  1  0  0  0  0
 30 31  1  0  0  0  0
 30 32  1  0  0  0  0
 30 33  1  0  0  0  0
 31 52  1  0  0  0  0
 31 53  1  0  0  0  0
 31 54  1  0  0  0  0
 32 55  1  0  0  0  0
 32 56  1  0  0  0  0
 32 57  1  0  0  0  0
 33 58  1  0  0  0  0
 33 59  1  0  0  0  0
 33 60  1  0  0  0  0
M  END
$$$$
