Title Card Required
 OpenBabel03192317463D

 59 62  0  0  1  0  0  0  0  0999 V2000
   -0.9145    0.9525   -0.6224 C   0  0  0  0  0  0  0  0  0  0  0  0
    0.0861    1.7404    0.1844 C   0  0  0  0  0  0  0  0  0  0  0  0
    1.0154    0.7429    0.8342 C   0  0  0  0  0  0  0  0  0  0  0  0
    0.9118    2.6229   -0.7762 C   0  0  0  0  0  0  0  0  0  0  0  0
    0.1002    3.6790   -1.5191 C   0  0  0  0  0  0  0  0  0  0  0  0
    0.9491    4.4279   -2.5407 C   0  0  0  0  0  0  0  0  0  0  0  0
   -0.6245    2.5845    1.2615 C   0  0  0  0  0  0  0  0  0  0  0  0
   -1.2041    1.8159    2.4464 C   0  0  0  0  0  0  0  0  0  0  0  0
   -1.9661    2.7394    3.3892 C   0  0  0  0  0  0  0  0  0  0  0  0
   -0.3664    0.1117   -1.5343 O   0  0  0  0  0  0  0  0  0  0  0  0
   -1.4531   -0.4442   -2.2754 C   0  0  0  0  0  0  0  0  0  0  0  0
   -2.7098    0.0240   -1.4872 C   0  0  2  0  0  0  0  0  0  0  0  0
   -2.1763    1.0149   -0.5494 N   0  0  0  0  0  0  0  0  0  0  0  0
    2.2562    0.8905    1.0303 N   0  0  0  0  0  0  0  0  0  0  0  0
    2.7475   -0.3726    1.5947 C   0  0  1  0  0  0  0  0  0  0  0  0
    1.4443   -1.1238    1.9702 C   0  0  0  0  0  0  0  0  0  0  0  0
    0.4387   -0.4179    1.2415 O   0  0  0  0  0  0  0  0  0  0  0  0
   -3.4050   -1.1058   -0.7543 C   0  0  0  0  0  0  0  0  0  0  0  0
    3.5856   -1.1099    0.5685 C   0  0  0  0  0  0  0  0  0  0  0  0
   -2.7985   -1.6999    0.3589 C   0  0  0  0  0  0  0  0  0  0  0  0
   -3.4122   -2.7737    1.0002 C   0  0  0  0  0  0  0  0  0  0  0  0
   -4.6353   -3.2645    0.5397 C   0  0  0  0  0  0  0  0  0  0  0  0
   -5.2435   -2.6750   -0.5661 C   0  0  0  0  0  0  0  0  0  0  0  0
   -4.6293   -1.5991   -1.2078 C   0  0  0  0  0  0  0  0  0  0  0  0
    4.8671   -1.5658    0.8771 C   0  0  0  0  0  0  0  0  0  0  0  0
    5.6197   -2.2632   -0.0692 C   0  0  0  0  0  0  0  0  0  0  0  0
    5.0916   -2.5103   -1.3338 C   0  0  0  0  0  0  0  0  0  0  0  0
    3.8089   -2.0573   -1.6490 C   0  0  0  0  0  0  0  0  0  0  0  0
    3.0598   -1.3600   -0.7054 C   0  0  0  0  0  0  0  0  0  0  0  0
    1.7133    3.0926   -0.1866 H   0  0  0  0  0  0  0  0  0  0  0  0
    1.4128    1.9604   -1.4992 H   0  0  0  0  0  0  0  0  0  0  0  0
   -0.7581    3.2047   -2.0252 H   0  0  0  0  0  0  0  0  0  0  0  0
   -0.3283    4.3964   -0.8019 H   0  0  0  0  0  0  0  0  0  0  0  0
    1.3592    3.7373   -3.2928 H   0  0  0  0  0  0  0  0  0  0  0  0
    0.3645    5.1945   -3.0681 H   0  0  0  0  0  0  0  0  0  0  0  0
    1.7995    4.9280   -2.0534 H   0  0  0  0  0  0  0  0  0  0  0  0
    0.1045    3.3273    1.6272 H   0  0  0  0  0  0  0  0  0  0  0  0
   -1.4377    3.1336    0.7636 H   0  0  0  0  0  0  0  0  0  0  0  0
   -1.8712    1.0260    2.0707 H   0  0  0  0  0  0  0  0  0  0  0  0
   -0.3926    1.3131    2.9983 H   0  0  0  0  0  0  0  0  0  0  0  0
   -2.8069    3.2218    2.8688 H   0  0  0  0  0  0  0  0  0  0  0  0
   -2.3747    2.1899    4.2485 H   0  0  0  0  0  0  0  0  0  0  0  0
   -1.3134    3.5360    3.7783 H   0  0  0  0  0  0  0  0  0  0  0  0
   -1.3450   -1.5358   -2.3064 H   0  0  0  0  0  0  0  0  0  0  0  0
   -1.4217   -0.0411   -3.2983 H   0  0  0  0  0  0  0  0  0  0  0  0
   -3.4372    0.5048   -2.1569 H   0  0  0  0  0  0  0  0  0  0  0  0
    3.3633   -0.1726    2.4822 H   0  0  0  0  0  0  0  0  0  0  0  0
    1.4390   -2.1761    1.6606 H   0  0  0  0  0  0  0  0  0  0  0  0
    1.2145   -1.0494    3.0444 H   0  0  0  0  0  0  0  0  0  0  0  0
   -1.8420   -1.3148    0.7250 H   0  0  0  0  0  0  0  0  0  0  0  0
   -2.9344   -3.2302    1.8687 H   0  0  0  0  0  0  0  0  0  0  0  0
   -5.1149   -4.1038    1.0459 H   0  0  0  0  0  0  0  0  0  0  0  0
   -6.2024   -3.0490   -0.9290 H   0  0  0  0  0  0  0  0  0  0  0  0
   -5.1109   -1.1330   -2.0708 H   0  0  0  0  0  0  0  0  0  0  0  0
    5.2854   -1.3687    1.8671 H   0  0  0  0  0  0  0  0  0  0  0  0
    6.6233   -2.6092    0.1833 H   0  0  0  0  0  0  0  0  0  0  0  0
    5.6787   -3.0524   -2.0767 H   0  0  0  0  0  0  0  0  0  0  0  0
    3.3914   -2.2445   -2.6397 H   0  0  0  0  0  0  0  0  0  0  0  0
    2.0581   -1.0004   -0.9614 H   0  0  0  0  0  0  0  0  0  0  0  0
  1  2  1  0  0  0  0
  1 10  1  0  0  0  0
  1 13  2  0  0  0  0
  2  3  1  0  0  0  0
  2  4  1  0  0  0  0
  2  7  1  0  0  0  0
  3 14  2  0  0  0  0
  3 17  1  0  0  0  0
  4  5  1  0  0  0  0
  4 30  1  0  0  0  0
  4 31  1  0  0  0  0
  5  6  1  0  0  0  0
  5 32  1  0  0  0  0
  5 33  1  0  0  0  0
  6 34  1  0  0  0  0
  6 35  1  0  0  0  0
  6 36  1  0  0  0  0
  7  8  1  0  0  0  0
  7 37  1  0  0  0  0
  7 38  1  0  0  0  0
  8  9  1  0  0  0  0
  8 39  1  0  0  0  0
  8 40  1  0  0  0  0
  9 41  1  0  0  0  0
  9 42  1  0  0  0  0
  9 43  1  0  0  0  0
 10 11  1  0  0  0  0
 11 12  1  0  0  0  0
 11 44  1  0  0  0  0
 11 45  1  0  0  0  0
 12 13  1  0  0  0  0
 12 18  1  0  0  0  0
 12 46  1  6  0  0  0
 14 15  1  0  0  0  0
 15 16  1  0  0  0  0
 15 19  1  0  0  0  0
 15 47  1  1  0  0  0
 16 17  1  0  0  0  0
 16 48  1  0  0  0  0
 16 49  1  0  0  0  0
 18 20  2  0  0  0  0
 18 24  1  0  0  0  0
 19 25  2  0  0  0  0
 19 29  1  0  0  0  0
 20 21  1  0  0  0  0
 20 50  1  0  0  0  0
 21 22  2  0  0  0  0
 21 51  1  0  0  0  0
 22 23  1  0  0  0  0
 22 52  1  0  0  0  0
 23 24  2  0  0  0  0
 23 53  1  0  0  0  0
 24 54  1  0  0  0  0
 25 26  1  0  0  0  0
 25 55  1  0  0  0  0
 26 27  2  0  0  0  0
 26 56  1  0  0  0  0
 27 28  1  0  0  0  0
 27 57  1  0  0  0  0
 28 29  2  0  0  0  0
 28 58  1  0  0  0  0
 29 59  1  0  0  0  0
M  END
$$$$
