Title Card Required
 OpenBabel03192317533D

 55 57  0  0  1  0  0  0  0  0999 V2000
    0.9898   -2.4306    0.1368 O   0  0  0  0  0  0  0  0  0  0  0  0
    1.2535   -1.2815    0.8025 C   0  0  0  0  0  0  0  0  0  0  0  0
    2.4411   -0.8427    0.7892 N   0  0  0  0  0  0  0  0  0  0  0  0
    3.2086   -1.7259   -0.0952 C   0  0  1  0  0  0  0  0  0  0  0  0
    2.2436   -2.9060   -0.3538 C   0  0  0  0  0  0  0  0  0  0  0  0
    0.0679   -0.7019    1.5305 C   0  0  1  0  0  0  0  0  0  0  0  0
   -1.8424    0.0916   -1.4626 C   0  0  0  0  0  0  0  0  0  0  0  0
   -2.9766   -0.0254   -0.4118 C   0  0  2  0  0  0  0  0  0  0  0  0
   -2.2836   -0.4474    0.8073 N   0  0  0  0  0  0  0  0  0  0  0  0
   -1.0469   -0.4727    0.5386 C   0  0  0  0  0  0  0  0  0  0  0  0
   -0.6532   -0.1578   -0.7118 O   0  0  0  0  0  0  0  0  0  0  0  0
   -0.3871   -1.6989    2.6041 C   0  0  0  0  0  0  0  0  0  0  0  0
   -4.1010   -0.9857   -0.8087 C   0  0  0  0  0  0  0  0  0  0  0  0
    3.6320   -0.9859   -1.3765 C   0  0  0  0  0  0  0  0  0  0  0  0
   -5.0923   -1.1617    0.3371 C   0  0  0  0  0  0  0  0  0  0  0  0
    2.4283   -0.3947   -2.1089 C   0  0  0  0  0  0  0  0  0  0  0  0
    4.6699    0.0895   -1.0693 C   0  0  0  0  0  0  0  0  0  0  0  0
   -4.8002   -0.4955   -2.0748 C   0  0  0  0  0  0  0  0  0  0  0  0
    0.4232    0.6575    2.1948 C   0  0  0  0  0  0  0  0  0  0  0  0
    0.4504    1.8450    1.2623 C   0  0  0  0  0  0  0  0  0  0  0  0
   -0.7321    2.5434    0.9857 C   0  0  0  0  0  0  0  0  0  0  0  0
   -0.7402    3.6044    0.0820 C   0  0  0  0  0  0  0  0  0  0  0  0
    0.4408    3.9903   -0.5524 C   0  0  0  0  0  0  0  0  0  0  0  0
    1.6274    3.3160   -0.2667 C   0  0  0  0  0  0  0  0  0  0  0  0
    1.6318    2.2524    0.6351 C   0  0  0  0  0  0  0  0  0  0  0  0
    4.1168   -2.0634    0.4279 H   0  0  0  0  0  0  0  0  0  0  0  0
    2.1388   -3.1591   -1.4179 H   0  0  0  0  0  0  0  0  0  0  0  0
    2.5172   -3.8117    0.2072 H   0  0  0  0  0  0  0  0  0  0  0  0
   -1.9217   -0.6736   -2.2509 H   0  0  0  0  0  0  0  0  0  0  0  0
   -1.7610    1.0845   -1.9238 H   0  0  0  0  0  0  0  0  0  0  0  0
   -3.4327    0.9637   -0.2182 H   0  0  0  0  0  0  0  0  0  0  0  0
    0.3859   -1.7852    3.3810 H   0  0  0  0  0  0  0  0  0  0  0  0
   -1.3229   -1.3430    3.0525 H   0  0  0  0  0  0  0  0  0  0  0  0
   -0.5633   -2.6867    2.1600 H   0  0  0  0  0  0  0  0  0  0  0  0
   -3.6252   -1.9612   -1.0166 H   0  0  0  0  0  0  0  0  0  0  0  0
    4.1027   -1.7488   -2.0230 H   0  0  0  0  0  0  0  0  0  0  0  0
   -4.5799   -1.5074    1.2435 H   0  0  0  0  0  0  0  0  0  0  0  0
   -5.5823   -0.2021    0.5688 H   0  0  0  0  0  0  0  0  0  0  0  0
   -5.8767   -1.8846    0.0701 H   0  0  0  0  0  0  0  0  0  0  0  0
    1.9768    0.4167   -1.5187 H   0  0  0  0  0  0  0  0  0  0  0  0
    2.7332    0.0132   -3.0835 H   0  0  0  0  0  0  0  0  0  0  0  0
    1.6382   -1.1411   -2.2829 H   0  0  0  0  0  0  0  0  0  0  0  0
    5.5598   -0.3353   -0.5816 H   0  0  0  0  0  0  0  0  0  0  0  0
    4.9934    0.5958   -1.9903 H   0  0  0  0  0  0  0  0  0  0  0  0
    4.2421    0.8457   -0.3953 H   0  0  0  0  0  0  0  0  0  0  0  0
   -4.1041   -0.3897   -2.9206 H   0  0  0  0  0  0  0  0  0  0  0  0
   -5.5923   -1.1935   -2.3810 H   0  0  0  0  0  0  0  0  0  0  0  0
   -5.2687    0.4862   -1.8983 H   0  0  0  0  0  0  0  0  0  0  0  0
   -0.3371    0.8311    2.9701 H   0  0  0  0  0  0  0  0  0  0  0  0
    1.3974    0.5339    2.6875 H   0  0  0  0  0  0  0  0  0  0  0  0
   -1.6573    2.2407    1.4837 H   0  0  0  0  0  0  0  0  0  0  0  0
   -1.6705    4.1384   -0.1211 H   0  0  0  0  0  0  0  0  0  0  0  0
    0.4380    4.8230   -1.2577 H   0  0  0  0  0  0  0  0  0  0  0  0
    2.5581    3.6186   -0.7508 H   0  0  0  0  0  0  0  0  0  0  0  0
    2.5502    1.7050    0.8517 H   0  0  0  0  0  0  0  0  0  0  0  0
  1  2  1  0  0  0  0
  1  5  1  0  0  0  0
  2  3  2  0  0  0  0
  2  6  1  0  0  0  0
  3  4  1  0  0  0  0
  4  5  1  0  0  0  0
  4 14  1  0  0  0  0
  4 26  1  1  0  0  0
  5 27  1  0  0  0  0
  5 28  1  0  0  0  0
  6 10  1  0  0  0  0
  6 12  1  1  0  0  0
  6 19  1  0  0  0  0
  7  8  1  0  0  0  0
  7 11  1  0  0  0  0
  7 29  1  0  0  0  0
  7 30  1  0  0  0  0
  8  9  1  0  0  0  0
  8 13  1  0  0  0  0
  8 31  1  1  0  0  0
  9 10  2  0  0  0  0
 10 11  1  0  0  0  0
 12 32  1  0  0  0  0
 12 33  1  0  0  0  0
 12 34  1  0  0  0  0
 13 15  1  0  0  0  0
 13 18  1  0  0  0  0
 13 35  1  0  0  0  0
 14 16  1  0  0  0  0
 14 17  1  0  0  0  0
 14 36  1  0  0  0  0
 15 37  1  0  0  0  0
 15 38  1  0  0  0  0
 15 39  1  0  0  0  0
 16 40  1  0  0  0  0
 16 41  1  0  0  0  0
 16 42  1  0  0  0  0
 17 43  1  0  0  0  0
 17 44  1  0  0  0  0
 17 45  1  0  0  0  0
 18 46  1  0  0  0  0
 18 47  1  0  0  0  0
 18 48  1  0  0  0  0
 19 20  1  0  0  0  0
 19 49  1  0  0  0  0
 19 50  1  0  0  0  0
 20 21  2  0  0  0  0
 20 25  1  0  0  0  0
 21 22  1  0  0  0  0
 21 51  1  0  0  0  0
 22 23  2  0  0  0  0
 22 52  1  0  0  0  0
 23 24  1  0  0  0  0
 23 53  1  0  0  0  0
 24 25  2  0  0  0  0
 24 54  1  0  0  0  0
 25 55  1  0  0  0  0
M  END
$$$$
