Title Card Required
 OpenBabel03192317533D

174181  0  0  0  0  0  0  0  0999 V2000
   -0.5771   -4.2418   -4.2988 O   0  0  0  0  0  0  0  0  0  0  0  0
   -0.1136   -3.3410   -3.3920 C   0  0  0  0  0  0  0  0  0  0  0  0
   -0.5396   -3.3517   -2.0558 C   0  0  0  0  0  0  0  0  0  0  0  0
   -1.4283   -4.2831   -1.6049 O   0  0  0  0  0  0  0  0  0  0  0  0
   -1.5484   -5.4091   -2.4458 C   0  0  0  0  0  0  0  0  0  0  0  0
   -1.7200   -4.9567   -3.8814 C   0  0  0  0  0  0  0  0  0  0  0  0
   -0.0631   -2.3914   -1.1516 C   0  0  0  0  0  0  0  0  0  0  0  0
    0.8464   -1.4167   -1.5855 C   0  0  0  0  0  0  0  0  0  0  0  0
    1.2832   -1.4318   -2.9180 C   0  0  0  0  0  0  0  0  0  0  0  0
    0.8088   -2.3820   -3.8122 C   0  0  0  0  0  0  0  0  0  0  0  0
   -0.1756   -4.8343    3.0761 O   0  0  0  0  0  0  0  0  0  0  0  0
   -0.5994   -3.7941    2.3107 C   0  0  0  0  0  0  0  0  0  0  0  0
   -0.1196   -3.5912    1.0086 C   0  0  0  0  0  0  0  0  0  0  0  0
    0.7694   -4.4579    0.4394 O   0  0  0  0  0  0  0  0  0  0  0  0
    0.8559   -5.7023    1.0983 C   0  0  0  0  0  0  0  0  0  0  0  0
    0.9823   -5.4787    2.5913 C   0  0  0  0  0  0  0  0  0  0  0  0
   -0.5574   -2.4920    0.2541 C   0  0  0  0  0  0  0  0  0  0  0  0
   -1.4782   -1.5898    0.8093 C   0  0  0  0  0  0  0  0  0  0  0  0
   -1.9882   -1.8373    2.0923 C   0  0  0  0  0  0  0  0  0  0  0  0
   -1.5510   -2.9206    2.8396 C   0  0  0  0  0  0  0  0  0  0  0  0
   -2.0031   -0.0969   -0.1502 P   0  0  0  0  0  0  0  0  0  0  0  0
   -3.8200   -0.2143    0.1553 C   0  0  0  0  0  0  0  0  0  0  0  0
   -4.4462   -1.3623   -0.3548 C   0  0  0  0  0  0  0  0  0  0  0  0
   -5.8162   -1.5832   -0.2019 C   0  0  0  0  0  0  0  0  0  0  0  0
   -6.5695   -0.5971    0.4626 C   0  0  0  0  0  0  0  0  0  0  0  0
   -5.9866    0.5718    0.9644 C   0  0  0  0  0  0  0  0  0  0  0  0
   -4.5984    0.7426    0.8051 C   0  0  0  0  0  0  0  0  0  0  0  0
   -6.9955    1.9228    1.8162 Si  0  0  0  0  0  0  0  0  0  0  0  0
   -8.6783    1.2383    2.3096 C   0  0  0  0  0  0  0  0  0  0  0  0
   -6.0634    2.5181    3.3403 C   0  0  0  0  0  0  0  0  0  0  0  0
   -7.2169    3.3635    0.6231 C   0  0  0  0  0  0  0  0  0  0  0  0
   -6.6098   -3.1759   -0.8300 Si  0  0  0  0  0  0  0  0  0  0  0  0
   -7.1880   -4.1966    0.6431 C   0  0  0  0  0  0  0  0  0  0  0  0
   -8.0866   -2.7609   -1.9226 C   0  0  0  0  0  0  0  0  0  0  0  0
   -5.3288   -4.1417   -1.8212 C   0  0  0  0  0  0  0  0  0  0  0  0
   -1.4808    1.2909    0.9485 C   0  0  0  0  0  0  0  0  0  0  0  0
   -0.7165    1.1222    2.1089 C   0  0  0  0  0  0  0  0  0  0  0  0
   -0.2377    2.2146    2.8415 C   0  0  0  0  0  0  0  0  0  0  0  0
   -0.5496    3.5037    2.3838 C   0  0  0  0  0  0  0  0  0  0  0  0
   -1.2942    3.7195    1.2164 C   0  0  0  0  0  0  0  0  0  0  0  0
   -1.7403    2.5939    0.5059 C   0  0  0  0  0  0  0  0  0  0  0  0
   -1.5980    5.4540    0.5388 Si  0  0  0  0  0  0  0  0  0  0  0  0
   -1.2866    6.7248    1.8932 C   0  0  0  0  0  0  0  0  0  0  0  0
   -0.4094    5.7544   -0.8918 C   0  0  0  0  0  0  0  0  0  0  0  0
   -3.3855    5.5841   -0.0439 C   0  0  0  0  0  0  0  0  0  0  0  0
    0.8222    1.9253    4.3771 Si  0  0  0  0  0  0  0  0  0  0  0  0
    1.7185    0.2782    4.1914 C   0  0  0  0  0  0  0  0  0  0  0  0
    2.0493    3.3456    4.5474 C   0  0  0  0  0  0  0  0  0  0  0  0
   -0.2817    1.8694    5.9034 C   0  0  0  0  0  0  0  0  0  0  0  0
    1.4334   -0.1728   -0.3544 P   0  0  0  0  0  0  0  0  0  0  0  0
    3.0791   -0.8546    0.0999 C   0  0  0  0  0  0  0  0  0  0  0  0
    3.4754   -2.1459   -0.2621 C   0  0  0  0  0  0  0  0  0  0  0  0
    4.6677   -2.7094    0.2139 C   0  0  0  0  0  0  0  0  0  0  0  0
    5.4758   -1.9316    1.0548 C   0  0  0  0  0  0  0  0  0  0  0  0
    5.1114   -0.6337    1.4502 C   0  0  0  0  0  0  0  0  0  0  0  0
    3.8966   -0.1234    0.9746 C   0  0  0  0  0  0  0  0  0  0  0  0
    6.2115    0.3754    2.6088 Si  0  0  0  0  0  0  0  0  0  0  0  0
    7.7842    0.8684    1.6984 C   0  0  0  0  0  0  0  0  0  0  0  0
    5.2676    1.9053    3.1660 C   0  0  0  0  0  0  0  0  0  0  0  0
    6.6517   -0.6781    4.1071 C   0  0  0  0  0  0  0  0  0  0  0  0
    5.1025   -4.4892   -0.2404 Si  0  0  0  0  0  0  0  0  0  0  0  0
    6.8331   -4.5575   -0.9782 C   0  0  0  0  0  0  0  0  0  0  0  0
    5.0585   -5.5410    1.3259 C   0  0  0  0  0  0  0  0  0  0  0  0
    3.8312   -5.1218   -1.4763 C   0  0  0  0  0  0  0  0  0  0  0  0
    1.7967    1.2473   -1.4686 C   0  0  0  0  0  0  0  0  0  0  0  0
    0.7226    1.7299   -2.2299 C   0  0  0  0  0  0  0  0  0  0  0  0
    0.8604    2.8320   -3.0826 C   0  0  0  0  0  0  0  0  0  0  0  0
    2.1016    3.4865   -3.1136 C   0  0  0  0  0  0  0  0  0  0  0  0
    3.1926    3.0480   -2.3487 C   0  0  0  0  0  0  0  0  0  0  0  0
    3.0236    1.9122   -1.5425 C   0  0  0  0  0  0  0  0  0  0  0  0
    4.8460    3.9572   -2.3991 Si  0  0  0  0  0  0  0  0  0  0  0  0
    4.5749    5.7435   -1.8676 C   0  0  0  0  0  0  0  0  0  0  0  0
    6.0425    3.1049   -1.2191 C   0  0  0  0  0  0  0  0  0  0  0  0
    5.5301    3.9208   -4.1532 C   0  0  0  0  0  0  0  0  0  0  0  0
   -0.5668    3.2964   -4.2308 Si  0  0  0  0  0  0  0  0  0  0  0  0
   -2.2087    3.1439   -3.3188 C   0  0  0  0  0  0  0  0  0  0  0  0
   -0.3313    5.0539   -4.8650 C   0  0  0  0  0  0  0  0  0  0  0  0
   -0.5569    2.0835   -5.6716 C   0  0  0  0  0  0  0  0  0  0  0  0
   -2.4211   -5.9784   -2.1017 H   0  0  0  0  0  0  0  0  0  0  0  0
   -0.6438   -6.0377   -2.3599 H   0  0  0  0  0  0  0  0  0  0  0  0
   -1.8321   -5.8107   -4.5609 H   0  0  0  0  0  0  0  0  0  0  0  0
   -2.6161   -4.3159   -3.9577 H   0  0  0  0  0  0  0  0  0  0  0  0
    1.9971   -0.6805   -3.2607 H   0  0  0  0  0  0  0  0  0  0  0  0
    1.1276   -2.4012   -4.8550 H   0  0  0  0  0  0  0  0  0  0  0  0
    1.7365   -6.2196    0.6948 H   0  0  0  0  0  0  0  0  0  0  0  0
   -0.0471   -6.3020    0.8861 H   0  0  0  0  0  0  0  0  0  0  0  0
    1.0760   -6.4279    3.1335 H   0  0  0  0  0  0  0  0  0  0  0  0
    1.8716   -4.8564    2.7958 H   0  0  0  0  0  0  0  0  0  0  0  0
   -2.7309   -1.1556    2.5133 H   0  0  0  0  0  0  0  0  0  0  0  0
   -1.9239   -3.1166    3.8454 H   0  0  0  0  0  0  0  0  0  0  0  0
   -3.8270   -2.1092   -0.8650 H   0  0  0  0  0  0  0  0  0  0  0  0
   -7.6470   -0.7515    0.5945 H   0  0  0  0  0  0  0  0  0  0  0  0
   -4.1129    1.6363    1.2092 H   0  0  0  0  0  0  0  0  0  0  0  0
   -8.5747    0.3537    2.9558 H   0  0  0  0  0  0  0  0  0  0  0  0
   -9.2509    1.9981    2.8627 H   0  0  0  0  0  0  0  0  0  0  0  0
   -9.2712    0.9522    1.4276 H   0  0  0  0  0  0  0  0  0  0  0  0
   -5.0749    2.9212    3.0711 H   0  0  0  0  0  0  0  0  0  0  0  0
   -6.6231    3.3170    3.8502 H   0  0  0  0  0  0  0  0  0  0  0  0
   -5.9090    1.6972    4.0562 H   0  0  0  0  0  0  0  0  0  0  0  0
   -6.2398    3.7480    0.2938 H   0  0  0  0  0  0  0  0  0  0  0  0
   -7.7735    3.0483   -0.2720 H   0  0  0  0  0  0  0  0  0  0  0  0
   -7.7676    4.1902    1.0978 H   0  0  0  0  0  0  0  0  0  0  0  0
   -7.8980   -3.6236    1.2584 H   0  0  0  0  0  0  0  0  0  0  0  0
   -7.6888   -5.1207    0.3164 H   0  0  0  0  0  0  0  0  0  0  0  0
   -6.3353   -4.4717    1.2816 H   0  0  0  0  0  0  0  0  0  0  0  0
   -7.7760   -2.1586   -2.7891 H   0  0  0  0  0  0  0  0  0  0  0  0
   -8.5685   -3.6779   -2.2946 H   0  0  0  0  0  0  0  0  0  0  0  0
   -8.8421   -2.1864   -1.3659 H   0  0  0  0  0  0  0  0  0  0  0  0
   -5.0045   -3.5626   -2.6998 H   0  0  0  0  0  0  0  0  0  0  0  0
   -4.4386   -4.3651   -1.2126 H   0  0  0  0  0  0  0  0  0  0  0  0
   -5.7550   -5.0926   -2.1759 H   0  0  0  0  0  0  0  0  0  0  0  0
   -0.4549    0.1111    2.4261 H   0  0  0  0  0  0  0  0  0  0  0  0
   -0.1801    4.3697    2.9439 H   0  0  0  0  0  0  0  0  0  0  0  0
   -2.2930    2.7308   -0.4316 H   0  0  0  0  0  0  0  0  0  0  0  0
   -0.2335    6.7223    2.2129 H   0  0  0  0  0  0  0  0  0  0  0  0
   -1.5208    7.7363    1.5283 H   0  0  0  0  0  0  0  0  0  0  0  0
   -1.9140    6.5274    2.7755 H   0  0  0  0  0  0  0  0  0  0  0  0
   -0.4912    4.9560   -1.6444 H   0  0  0  0  0  0  0  0  0  0  0  0
   -0.5997    6.7216   -1.3824 H   0  0  0  0  0  0  0  0  0  0  0  0
    0.6303    5.7468   -0.5300 H   0  0  0  0  0  0  0  0  0  0  0  0
   -3.6366    4.8036   -0.7781 H   0  0  0  0  0  0  0  0  0  0  0  0
   -4.0735    5.4772    0.8087 H   0  0  0  0  0  0  0  0  0  0  0  0
   -3.5747    6.5611   -0.5143 H   0  0  0  0  0  0  0  0  0  0  0  0
    2.2662    0.2183    3.2380 H   0  0  0  0  0  0  0  0  0  0  0  0
    2.4375    0.1308    5.0127 H   0  0  0  0  0  0  0  0  0  0  0  0
    1.0088   -0.5637    4.2156 H   0  0  0  0  0  0  0  0  0  0  0  0
    1.5305    4.2933    4.7582 H   0  0  0  0  0  0  0  0  0  0  0  0
    2.7508    3.1594    5.3752 H   0  0  0  0  0  0  0  0  0  0  0  0
    2.6358    3.4755    3.6257 H   0  0  0  0  0  0  0  0  0  0  0  0
   -0.8239    2.8191    6.0251 H   0  0  0  0  0  0  0  0  0  0  0  0
   -1.0269    1.0653    5.8102 H   0  0  0  0  0  0  0  0  0  0  0  0
    0.3059    1.6894    6.8166 H   0  0  0  0  0  0  0  0  0  0  0  0
    2.8280   -2.7330   -0.9167 H   0  0  0  0  0  0  0  0  0  0  0  0
    6.4159   -2.3553    1.4307 H   0  0  0  0  0  0  0  0  0  0  0  0
    3.5659    0.8707    1.2971 H   0  0  0  0  0  0  0  0  0  0  0  0
    7.5446    1.4830    0.8178 H   0  0  0  0  0  0  0  0  0  0  0  0
    8.4552    1.4469    2.3516 H   0  0  0  0  0  0  0  0  0  0  0  0
    8.3298   -0.0224    1.3522 H   0  0  0  0  0  0  0  0  0  0  0  0
    4.3377    1.6241    3.6838 H   0  0  0  0  0  0  0  0  0  0  0  0
    5.8751    2.5031    3.8623 H   0  0  0  0  0  0  0  0  0  0  0  0
    5.0008    2.5525    2.3161 H   0  0  0  0  0  0  0  0  0  0  0  0
    5.7429   -0.9802    4.6489 H   0  0  0  0  0  0  0  0  0  0  0  0
    7.1909   -1.5908    3.8121 H   0  0  0  0  0  0  0  0  0  0  0  0
    7.2962   -0.1174    4.8012 H   0  0  0  0  0  0  0  0  0  0  0  0
    7.5794   -4.1622   -0.2726 H   0  0  0  0  0  0  0  0  0  0  0  0
    7.1168   -5.5920   -1.2251 H   0  0  0  0  0  0  0  0  0  0  0  0
    6.8872   -3.9574   -1.8985 H   0  0  0  0  0  0  0  0  0  0  0  0
    4.0648   -5.4957    1.7962 H   0  0  0  0  0  0  0  0  0  0  0  0
    5.2924   -6.5944    1.1082 H   0  0  0  0  0  0  0  0  0  0  0  0
    5.7901   -5.1752    2.0622 H   0  0  0  0  0  0  0  0  0  0  0  0
    2.8074   -5.0206   -1.0820 H   0  0  0  0  0  0  0  0  0  0  0  0
    3.8777   -4.5501   -2.4160 H   0  0  0  0  0  0  0  0  0  0  0  0
    4.0133   -6.1810   -1.7139 H   0  0  0  0  0  0  0  0  0  0  0  0
   -0.2386    1.2043   -2.1677 H   0  0  0  0  0  0  0  0  0  0  0  0
    2.2210    4.3652   -3.7586 H   0  0  0  0  0  0  0  0  0  0  0  0
    3.8709    1.5357   -0.9649 H   0  0  0  0  0  0  0  0  0  0  0  0
    4.1773    5.7875   -0.8427 H   0  0  0  0  0  0  0  0  0  0  0  0
    5.5141    6.3164   -1.8982 H   0  0  0  0  0  0  0  0  0  0  0  0
    3.8514    6.2426   -2.5299 H   0  0  0  0  0  0  0  0  0  0  0  0
    6.2099    2.0554   -1.5065 H   0  0  0  0  0  0  0  0  0  0  0  0
    7.0172    3.6160   -1.2189 H   0  0  0  0  0  0  0  0  0  0  0  0
    5.6559    3.1162   -0.1880 H   0  0  0  0  0  0  0  0  0  0  0  0
    5.7019    2.8851   -4.4819 H   0  0  0  0  0  0  0  0  0  0  0  0
    4.8242    4.3851   -4.8584 H   0  0  0  0  0  0  0  0  0  0  0  0
    6.4837    4.4662   -4.2194 H   0  0  0  0  0  0  0  0  0  0  0  0
   -2.2947    3.8951   -2.5198 H   0  0  0  0  0  0  0  0  0  0  0  0
   -3.0446    3.2991   -4.0182 H   0  0  0  0  0  0  0  0  0  0  0  0
   -2.3288    2.1446   -2.8704 H   0  0  0  0  0  0  0  0  0  0  0  0
    0.5754    5.1370   -5.4833 H   0  0  0  0  0  0  0  0  0  0  0  0
   -1.1877    5.3514   -5.4890 H   0  0  0  0  0  0  0  0  0  0  0  0
   -0.2488    5.7701   -4.0340 H   0  0  0  0  0  0  0  0  0  0  0  0
    0.3893    2.1505   -6.2292 H   0  0  0  0  0  0  0  0  0  0  0  0
   -0.6577    1.0525   -5.2995 H   0  0  0  0  0  0  0  0  0  0  0  0
   -1.3845    2.2810   -6.3698 H   0  0  0  0  0  0  0  0  0  0  0  0
  1  2  1  0  0  0  0
  1  6  1  0  0  0  0
  2  3  2  0  0  0  0
  2 10  1  0  0  0  0
  3  4  1  0  0  0  0
  3  7  1  0  0  0  0
  4  5  1  0  0  0  0
  5  6  1  0  0  0  0
  5 79  1  0  0  0  0
  5 80  1  0  0  0  0
  6 81  1  0  0  0  0
  6 82  1  0  0  0  0
  7  8  2  0  0  0  0
  7 17  1  0  0  0  0
  8  9  1  0  0  0  0
  8 50  1  0  0  0  0
  9 10  2  0  0  0  0
  9 83  1  0  0  0  0
 10 84  1  0  0  0  0
 11 12  1  0  0  0  0
 11 16  1  0  0  0  0
 12 13  2  0  0  0  0
 12 20  1  0  0  0  0
 13 14  1  0  0  0  0
 13 17  1  0  0  0  0
 14 15  1  0  0  0  0
 15 16  1  0  0  0  0
 15 85  1  0  0  0  0
 15 86  1  0  0  0  0
 16 87  1  0  0  0  0
 16 88  1  0  0  0  0
 17 18  2  0  0  0  0
 18 19  1  0  0  0  0
 18 21  1  0  0  0  0
 19 20  2  0  0  0  0
 19 89  1  0  0  0  0
 20 90  1  0  0  0  0
 21 22  1  0  0  0  0
 21 36  1  0  0  0  0
 22 23  2  0  0  0  0
 22 27  1  0  0  0  0
 23 24  1  0  0  0  0
 23 91  1  0  0  0  0
 24 25  2  0  0  0  0
 24 32  1  0  0  0  0
 25 26  1  0  0  0  0
 25 92  1  0  0  0  0
 26 27  2  0  0  0  0
 26 28  1  0  0  0  0
 27 93  1  0  0  0  0
 28 29  1  0  0  0  0
 28 30  1  0  0  0  0
 28 31  1  0  0  0  0
 29 94  1  0  0  0  0
 29 95  1  0  0  0  0
 29 96  1  0  0  0  0
 30 97  1  0  0  0  0
 30 98  1  0  0  0  0
 30 99  1  0  0  0  0
 31100  1  0  0  0  0
 31101  1  0  0  0  0
 31102  1  0  0  0  0
 32 33  1  0  0  0  0
 32 34  1  0  0  0  0
 32 35  1  0  0  0  0
 33103  1  0  0  0  0
 33104  1  0  0  0  0
 33105  1  0  0  0  0
 34106  1  0  0  0  0
 34107  1  0  0  0  0
 34108  1  0  0  0  0
 35109  1  0  0  0  0
 35110  1  0  0  0  0
 35111  1  0  0  0  0
 36 37  2  0  0  0  0
 36 41  1  0  0  0  0
 37 38  1  0  0  0  0
 37112  1  0  0  0  0
 38 39  2  0  0  0  0
 38 46  1  0  0  0  0
 39 40  1  0  0  0  0
 39113  1  0  0  0  0
 40 41  2  0  0  0  0
 40 42  1  0  0  0  0
 41114  1  0  0  0  0
 42 43  1  0  0  0  0
 42 44  1  0  0  0  0
 42 45  1  0  0  0  0
 43115  1  0  0  0  0
 43116  1  0  0  0  0
 43117  1  0  0  0  0
 44118  1  0  0  0  0
 44119  1  0  0  0  0
 44120  1  0  0  0  0
 45121  1  0  0  0  0
 45122  1  0  0  0  0
 45123  1  0  0  0  0
 46 47  1  0  0  0  0
 46 48  1  0  0  0  0
 46 49  1  0  0  0  0
 47124  1  0  0  0  0
 47125  1  0  0  0  0
 47126  1  0  0  0  0
 48127  1  0  0  0  0
 48128  1  0  0  0  0
 48129  1  0  0  0  0
 49130  1  0  0  0  0
 49131  1  0  0  0  0
 49132  1  0  0  0  0
 50 51  1  0  0  0  0
 50 65  1  0  0  0  0
 51 52  2  0  0  0  0
 51 56  1  0  0  0  0
 52 53  1  0  0  0  0
 52133  1  0  0  0  0
 53 54  2  0  0  0  0
 53 61  1  0  0  0  0
 54 55  1  0  0  0  0
 54134  1  0  0  0  0
 55 56  2  0  0  0  0
 55 57  1  0  0  0  0
 56135  1  0  0  0  0
 57 58  1  0  0  0  0
 57 59  1  0  0  0  0
 57 60  1  0  0  0  0
 58136  1  0  0  0  0
 58137  1  0  0  0  0
 58138  1  0  0  0  0
 59139  1  0  0  0  0
 59140  1  0  0  0  0
 59141  1  0  0  0  0
 60142  1  0  0  0  0
 60143  1  0  0  0  0
 60144  1  0  0  0  0
 61 62  1  0  0  0  0
 61 63  1  0  0  0  0
 61 64  1  0  0  0  0
 62145  1  0  0  0  0
 62146  1  0  0  0  0
 62147  1  0  0  0  0
 63148  1  0  0  0  0
 63149  1  0  0  0  0
 63150  1  0  0  0  0
 64151  1  0  0  0  0
 64152  1  0  0  0  0
 64153  1  0  0  0  0
 65 66  2  0  0  0  0
 65 70  1  0  0  0  0
 66 67  1  0  0  0  0
 66154  1  0  0  0  0
 67 68  2  0  0  0  0
 67 75  1  0  0  0  0
 68 69  1  0  0  0  0
 68155  1  0  0  0  0
 69 70  2  0  0  0  0
 69 71  1  0  0  0  0
 70156  1  0  0  0  0
 71 72  1  0  0  0  0
 71 73  1  0  0  0  0
 71 74  1  0  0  0  0
 72157  1  0  0  0  0
 72158  1  0  0  0  0
 72159  1  0  0  0  0
 73160  1  0  0  0  0
 73161  1  0  0  0  0
 73162  1  0  0  0  0
 74163  1  0  0  0  0
 74164  1  0  0  0  0
 74165  1  0  0  0  0
 75 76  1  0  0  0  0
 75 77  1  0  0  0  0
 75 78  1  0  0  0  0
 76166  1  0  0  0  0
 76167  1  0  0  0  0
 76168  1  0  0  0  0
 77169  1  0  0  0  0
 77170  1  0  0  0  0
 77171  1  0  0  0  0
 78172  1  0  0  0  0
 78173  1  0  0  0  0
 78174  1  0  0  0  0
M  END
$$$$
