Title Card Required
 OpenBabel03192317563D

 30 32  0  0  1  0  0  0  0  0999 V2000
    2.9541   -0.1360   -0.5740 N   0  0  0  0  0  0  0  0  0  0  0  0
    3.5895    0.9229   -1.1597 C   0  0  0  0  0  0  0  0  0  0  0  0
    3.1738    2.0218   -0.4324 C   0  0  0  0  0  0  0  0  0  0  0  0
    2.3032    1.6560    0.5607 N   0  0  0  0  0  0  0  0  0  0  0  0
    2.1995    0.3563    0.4403 C   0  0  0  0  0  0  0  0  0  0  0  0
    1.3667   -0.7456    1.0404 C   0  0  2  0  0  0  0  0  0  0  0  0
    2.1158   -1.9904    0.5363 C   0  0  0  0  0  0  0  0  0  0  0  0
    2.7831   -1.5633   -0.7885 C   0  0  0  0  0  0  0  0  0  0  0  0
    0.0660   -0.7675    0.5005 O   0  0  0  0  0  0  0  0  0  0  0  0
   -0.7383    0.3047    0.9279 C   0  0  0  0  0  0  0  0  0  0  0  0
   -2.1177    0.1898    0.3323 C   0  0  0  0  0  0  0  0  0  0  0  0
   -2.5838   -1.0193   -0.1877 C   0  0  0  0  0  0  0  0  0  0  0  0
   -3.8763   -1.1107   -0.7040 C   0  0  0  0  0  0  0  0  0  0  0  0
   -4.7159    0.0016   -0.7021 C   0  0  0  0  0  0  0  0  0  0  0  0
   -4.2540    1.2125   -0.1853 C   0  0  0  0  0  0  0  0  0  0  0  0
   -2.9613    1.3053    0.3243 C   0  0  0  0  0  0  0  0  0  0  0  0
    4.2702    0.8222   -1.9990 H   0  0  0  0  0  0  0  0  0  0  0  0
    3.4716    3.0579   -0.5773 H   0  0  0  0  0  0  0  0  0  0  0  0
    1.3193   -0.6894    2.1420 H   0  0  0  0  0  0  0  0  0  0  0  0
    2.8906   -2.2661    1.2646 H   0  0  0  0  0  0  0  0  0  0  0  0
    1.4255   -2.8334    0.4152 H   0  0  0  0  0  0  0  0  0  0  0  0
    3.7460   -2.0611   -0.9628 H   0  0  0  0  0  0  0  0  0  0  0  0
    2.1280   -1.7391   -1.6545 H   0  0  0  0  0  0  0  0  0  0  0  0
   -0.8115    0.2929    2.0347 H   0  0  0  0  0  0  0  0  0  0  0  0
   -0.2802    1.2704    0.6502 H   0  0  0  0  0  0  0  0  0  0  0  0
   -1.9186   -1.8827   -0.1900 H   0  0  0  0  0  0  0  0  0  0  0  0
   -4.2304   -2.0597   -1.1108 H   0  0  0  0  0  0  0  0  0  0  0  0
   -5.7269   -0.0729   -1.1058 H   0  0  0  0  0  0  0  0  0  0  0  0
   -4.9015    2.0909   -0.1855 H   0  0  0  0  0  0  0  0  0  0  0  0
   -2.5980    2.2579    0.7184 H   0  0  0  0  0  0  0  0  0  0  0  0
  1  2  1  0  0  0  0
  1  5  1  0  0  0  0
  1  8  1  0  0  0  0
  2  3  2  0  0  0  0
  2 17  1  0  0  0  0
  3  4  1  0  0  0  0
  3 18  1  0  0  0  0
  4  5  2  0  0  0  0
  5  6  1  0  0  0  0
  6  7  1  0  0  0  0
  6  9  1  0  0  0  0
  6 19  1  1  0  0  0
  7  8  1  0  0  0  0
  7 20  1  0  0  0  0
  7 21  1  0  0  0  0
  8 22  1  0  0  0  0
  8 23  1  0  0  0  0
  9 10  1  0  0  0  0
 10 11  1  0  0  0  0
 10 24  1  0  0  0  0
 10 25  1  0  0  0  0
 11 12  2  0  0  0  0
 11 16  1  0  0  0  0
 12 13  1  0  0  0  0
 12 26  1  0  0  0  0
 13 14  2  0  0  0  0
 13 27  1  0  0  0  0
 14 15  1  0  0  0  0
 14 28  1  0  0  0  0
 15 16  2  0  0  0  0
 15 29  1  0  0  0  0
 16 30  1  0  0  0  0
M  END
$$$$
