Title Card Required
 OpenBabel03192317543D

 32 33  0  0  1  0  0  0  0  0999 V2000
   -2.0809    0.1988   -0.6636 C   0  0  0  0  0  0  0  0  0  0  0  0
   -2.6245    0.0326    0.5655 N   0  0  0  0  0  0  0  0  0  0  0  0
   -3.1831    1.2257    0.9218 C   0  0  0  0  0  0  0  0  0  0  0  0
   -2.9453    2.0579   -0.1569 C   0  0  0  0  0  0  0  0  0  0  0  0
   -2.2561    1.4034   -1.1416 N   0  0  0  0  0  0  0  0  0  0  0  0
   -1.3834   -1.0488   -1.1149 C   0  0  2  0  0  0  0  0  0  0  0  0
   -1.7727   -2.0625   -0.0094 C   0  0  0  0  0  0  0  0  0  0  0  0
   -2.3546   -1.2565    1.1760 C   0  0  0  0  0  0  0  0  0  0  0  0
    0.0211   -0.8815   -1.3202 O   0  0  0  0  0  0  0  0  0  0  0  0
    0.7570   -0.4402   -0.3014 C   0  0  0  0  0  0  0  0  0  0  0  0
    1.9810   -0.2184   -0.7424 O   0  0  0  0  0  0  0  0  0  0  0  0
    0.3534   -0.2932    0.8240 O   0  0  0  0  0  0  0  0  0  0  0  0
    3.0181    0.2880    0.1443 C   0  0  0  0  0  0  0  0  0  0  0  0
    3.2864   -0.7184    1.2589 C   0  0  0  0  0  0  0  0  0  0  0  0
    4.2239    0.4057   -0.7777 C   0  0  0  0  0  0  0  0  0  0  0  0
    2.6164    1.6558    0.6862 C   0  0  0  0  0  0  0  0  0  0  0  0
   -3.6933    1.3864    1.8662 H   0  0  0  0  0  0  0  0  0  0  0  0
   -3.2503    3.0963   -0.2666 H   0  0  0  0  0  0  0  0  0  0  0  0
   -1.7290   -1.3735   -2.1024 H   0  0  0  0  0  0  0  0  0  0  0  0
   -2.5348   -2.7436   -0.4110 H   0  0  0  0  0  0  0  0  0  0  0  0
   -0.9077   -2.6672    0.2889 H   0  0  0  0  0  0  0  0  0  0  0  0
   -3.2763   -1.7034    1.5724 H   0  0  0  0  0  0  0  0  0  0  0  0
   -1.6218   -1.1365    1.9835 H   0  0  0  0  0  0  0  0  0  0  0  0
    3.5023   -1.7071    0.8284 H   0  0  0  0  0  0  0  0  0  0  0  0
    4.1637   -0.3957    1.8372 H   0  0  0  0  0  0  0  0  0  0  0  0
    2.4272   -0.7977    1.9349 H   0  0  0  0  0  0  0  0  0  0  0  0
    4.0044    1.0975   -1.6023 H   0  0  0  0  0  0  0  0  0  0  0  0
    5.0905    0.7824   -0.2173 H   0  0  0  0  0  0  0  0  0  0  0  0
    4.4742   -0.5756   -1.2037 H   0  0  0  0  0  0  0  0  0  0  0  0
    2.3703    2.3323   -0.1447 H   0  0  0  0  0  0  0  0  0  0  0  0
    1.7504    1.5796    1.3537 H   0  0  0  0  0  0  0  0  0  0  0  0
    3.4598    2.0855    1.2452 H   0  0  0  0  0  0  0  0  0  0  0  0
  1  2  1  0  0  0  0
  1  5  2  0  0  0  0
  1  6  1  0  0  0  0
  2  3  1  0  0  0  0
  2  8  1  0  0  0  0
  3  4  2  0  0  0  0
  3 17  1  0  0  0  0
  4  5  1  0  0  0  0
  4 18  1  0  0  0  0
  6  7  1  0  0  0  0
  6  9  1  0  0  0  0
  6 19  1  6  0  0  0
  7  8  1  0  0  0  0
  7 20  1  0  0  0  0
  7 21  1  0  0  0  0
  8 22  1  0  0  0  0
  8 23  1  0  0  0  0
  9 10  1  0  0  0  0
 10 11  1  0  0  0  0
 10 12  2  0  0  0  0
 11 13  1  0  0  0  0
 13 14  1  0  0  0  0
 13 15  1  0  0  0  0
 13 16  1  0  0  0  0
 14 24  1  0  0  0  0
 14 25  1  0  0  0  0
 14 26  1  0  0  0  0
 15 27  1  0  0  0  0
 15 28  1  0  0  0  0
 15 29  1  0  0  0  0
 16 30  1  0  0  0  0
 16 31  1  0  0  0  0
 16 32  1  0  0  0  0
M  END
$$$$
