Title Card Required
 OpenBabel03192317523D

 45 49  0  0  1  0  0  0  0  0999 V2000
   -5.3793    1.2861    0.6247 C   0  0  0  0  0  0  0  0  0  0  0  0
   -4.6804    2.2280   -0.1071 C   0  0  0  0  0  0  0  0  0  0  0  0
   -3.6116    1.6626   -0.7498 N   0  0  0  0  0  0  0  0  0  0  0  0
   -3.6654    0.3996   -0.4185 C   0  0  0  0  0  0  0  0  0  0  0  0
   -4.7087    0.1158    0.4032 N   0  0  0  0  0  0  0  0  0  0  0  0
   -2.8212   -0.8249   -0.6181 C   0  0  2  0  0  0  0  0  0  0  0  0
   -3.7773   -1.9360   -0.1472 C   0  0  0  0  0  0  0  0  0  0  0  0
   -4.7467   -1.2654    0.8512 C   0  0  0  0  0  0  0  0  0  0  0  0
   -1.6917   -0.7678    0.2533 O   0  0  0  0  0  0  0  0  0  0  0  0
   -0.4673   -0.6581   -0.3272 C   0  0  0  0  0  0  0  0  0  0  0  0
    0.4750   -0.4604    0.6252 N   0  0  0  0  0  0  0  0  0  0  0  0
   -0.2766   -0.7481   -1.5153 O   0  0  0  0  0  0  0  0  0  0  0  0
    1.8754   -0.1646    0.3304 C   0  0  2  0  0  0  0  0  0  0  0  0
    2.0065    1.1156   -0.5161 C   0  0  0  0  0  0  0  0  0  0  0  0
    2.5477   -1.3356   -0.4095 C   0  0  0  0  0  0  0  0  0  0  0  0
    4.0284   -1.0151   -0.6544 C   0  0  2  0  0  0  0  0  0  0  0  0
    4.7361   -0.7989    0.6901 C   0  0  0  0  0  0  0  0  0  0  0  0
    4.0755    0.3718    1.4320 C   0  0  1  0  0  0  0  0  0  0  0  0
    4.1410    0.2584   -1.5045 C   0  0  0  0  0  0  0  0  0  0  0  0
    3.4866    1.4324   -0.7622 C   0  0  2  0  0  0  0  0  0  0  0  0
    4.1928    1.6460    0.5833 C   0  0  0  0  0  0  0  0  0  0  0  0
    2.5944    0.0502    1.6704 C   0  0  0  0  0  0  0  0  0  0  0  0
   -6.2688    1.3570    1.2427 H   0  0  0  0  0  0  0  0  0  0  0  0
   -4.9092    3.2872   -0.2042 H   0  0  0  0  0  0  0  0  0  0  0  0
   -2.4639   -0.9550   -1.6456 H   0  0  0  0  0  0  0  0  0  0  0  0
   -4.3436   -2.3043   -1.0136 H   0  0  0  0  0  0  0  0  0  0  0  0
   -3.2244   -2.7747    0.2918 H   0  0  0  0  0  0  0  0  0  0  0  0
   -5.7634   -1.6764    0.7971 H   0  0  0  0  0  0  0  0  0  0  0  0
   -4.3916   -1.3385    1.8902 H   0  0  0  0  0  0  0  0  0  0  0  0
    0.1321   -0.3033    1.5648 H   0  0  0  0  0  0  0  0  0  0  0  0
    1.4754    0.9706   -1.4679 H   0  0  0  0  0  0  0  0  0  0  0  0
    1.5164    1.9460    0.0188 H   0  0  0  0  0  0  0  0  0  0  0  0
    2.4452   -2.2469    0.2031 H   0  0  0  0  0  0  0  0  0  0  0  0
    2.0224   -1.5066   -1.3600 H   0  0  0  0  0  0  0  0  0  0  0  0
    4.4962   -1.8574   -1.1869 H   0  0  0  0  0  0  0  0  0  0  0  0
    5.8045   -0.5834    0.5265 H   0  0  0  0  0  0  0  0  0  0  0  0
    4.6780   -1.7151    1.3004 H   0  0  0  0  0  0  0  0  0  0  0  0
    4.5707    0.5242    2.4035 H   0  0  0  0  0  0  0  0  0  0  0  0
    3.6460    0.1061   -2.4768 H   0  0  0  0  0  0  0  0  0  0  0  0
    5.2010    0.4835   -1.7070 H   0  0  0  0  0  0  0  0  0  0  0  0
    3.5641    2.3460   -1.3713 H   0  0  0  0  0  0  0  0  0  0  0  0
    5.2552    1.8903    0.4218 H   0  0  0  0  0  0  0  0  0  0  0  0
    3.7385    2.4976    1.1158 H   0  0  0  0  0  0  0  0  0  0  0  0
    2.4937   -0.8601    2.2857 H   0  0  0  0  0  0  0  0  0  0  0  0
    2.1085    0.8793    2.2140 H   0  0  0  0  0  0  0  0  0  0  0  0
  1  2  2  0  0  0  0
  1  5  1  0  0  0  0
  1 23  1  0  0  0  0
  2  3  1  0  0  0  0
  2 24  1  0  0  0  0
  3  4  2  0  0  0  0
  4  5  1  0  0  0  0
  4  6  1  0  0  0  0
  5  8  1  0  0  0  0
  6  7  1  0  0  0  0
  6  9  1  0  0  0  0
  6 25  1  6  0  0  0
  7  8  1  0  0  0  0
  7 26  1  0  0  0  0
  7 27  1  0  0  0  0
  8 28  1  0  0  0  0
  8 29  1  0  0  0  0
  9 10  1  0  0  0  0
 10 11  1  0  0  0  0
 10 12  2  0  0  0  0
 11 30  1  0  0  0  0
 13 11  1  1  0  0  0
 13 14  1  0  0  0  0
 13 15  1  0  0  0  0
 13 22  1  0  0  0  0
 14 20  1  0  0  0  0
 14 31  1  0  0  0  0
 14 32  1  0  0  0  0
 15 16  1  0  0  0  0
 15 33  1  0  0  0  0
 15 34  1  0  0  0  0
 16 17  1  0  0  0  0
 16 19  1  0  0  0  0
 16 35  1  6  0  0  0
 17 18  1  0  0  0  0
 17 36  1  0  0  0  0
 17 37  1  0  0  0  0
 18 21  1  0  0  0  0
 18 22  1  0  0  0  0
 18 38  1  1  0  0  0
 19 20  1  0  0  0  0
 19 39  1  0  0  0  0
 19 40  1  0  0  0  0
 20 21  1  0  0  0  0
 20 41  1  6  0  0  0
 21 42  1  0  0  0  0
 21 43  1  0  0  0  0
 22 44  1  0  0  0  0
 22 45  1  0  0  0  0
M  END
$$$$
