Title Card Required
 OpenBabel03192317403D

 36 37  0  0  1  0  0  0  0  0999 V2000
    2.7730    0.2120   -0.5380 N   0  0  0  0  0  0  0  0  0  0  0  0
    3.2609    1.4848   -0.6148 C   0  0  0  0  0  0  0  0  0  0  0  0
    2.9342    2.0574    0.6007 C   0  0  0  0  0  0  0  0  0  0  0  0
    2.2593    1.1716    1.3971 N   0  0  0  0  0  0  0  0  0  0  0  0
    2.1810    0.0857    0.6719 C   0  0  0  0  0  0  0  0  0  0  0  0
    1.5450   -1.2630    0.8228 C   0  0  2  0  0  0  0  0  0  0  0  0
    2.0200   -1.9972   -0.4572 C   0  0  0  0  0  0  0  0  0  0  0  0
    2.5929   -0.9287   -1.4187 C   0  0  0  0  0  0  0  0  0  0  0  0
    0.1334   -1.2082    1.0200 O   0  0  0  0  0  0  0  0  0  0  0  0
   -0.6111   -0.5612    0.0954 C   0  0  0  0  0  0  0  0  0  0  0  0
   -1.8934   -0.3573    0.5047 N   0  0  0  0  0  0  0  0  0  0  0  0
   -0.1509   -0.2331   -0.9789 O   0  0  0  0  0  0  0  0  0  0  0  0
   -2.8185    0.3850   -0.4047 C   0  0  0  0  0  0  0  0  0  0  0  0
   -2.9311   -0.3353   -1.7547 C   0  0  0  0  0  0  0  0  0  0  0  0
   -4.2230    0.4226    0.2080 C   0  0  0  0  0  0  0  0  0  0  0  0
   -2.3162    1.8226   -0.5831 C   0  0  0  0  0  0  0  0  0  0  0  0
   -2.2622   -0.5395    1.9019 C   0  0  0  0  0  0  0  0  0  0  0  0
    3.7877    1.8698   -1.4820 H   0  0  0  0  0  0  0  0  0  0  0  0
    3.1664    3.0659    0.9362 H   0  0  0  0  0  0  0  0  0  0  0  0
    1.8916   -1.7739    1.7284 H   0  0  0  0  0  0  0  0  0  0  0  0
    2.8060   -2.7127   -0.1802 H   0  0  0  0  0  0  0  0  0  0  0  0
    1.1957   -2.5566   -0.9143 H   0  0  0  0  0  0  0  0  0  0  0  0
    3.5496   -1.2363   -1.8622 H   0  0  0  0  0  0  0  0  0  0  0  0
    1.8774   -0.6727   -2.2096 H   0  0  0  0  0  0  0  0  0  0  0  0
   -3.2504   -1.3764   -1.5976 H   0  0  0  0  0  0  0  0  0  0  0  0
   -3.6906    0.1675   -2.3707 H   0  0  0  0  0  0  0  0  0  0  0  0
   -1.9797   -0.3320   -2.2946 H   0  0  0  0  0  0  0  0  0  0  0  0
   -4.2510    0.9567    1.1668 H   0  0  0  0  0  0  0  0  0  0  0  0
   -4.8837    0.9568   -0.4879 H   0  0  0  0  0  0  0  0  0  0  0  0
   -4.6317   -0.5882    0.3501 H   0  0  0  0  0  0  0  0  0  0  0  0
   -2.2580    2.3301    0.3919 H   0  0  0  0  0  0  0  0  0  0  0  0
   -1.3212    1.8289   -1.0440 H   0  0  0  0  0  0  0  0  0  0  0  0
   -3.0086    2.3883   -1.2236 H   0  0  0  0  0  0  0  0  0  0  0  0
   -3.1937   -1.1122    1.9892 H   0  0  0  0  0  0  0  0  0  0  0  0
   -1.4717   -1.0863    2.4172 H   0  0  0  0  0  0  0  0  0  0  0  0
   -2.3981    0.4302    2.4074 H   0  0  0  0  0  0  0  0  0  0  0  0
  1  2  1  0  0  0  0
  1  5  1  0  0  0  0
  1  8  1  0  0  0  0
  2  3  2  0  0  0  0
  2 18  1  0  0  0  0
  3  4  1  0  0  0  0
  3 19  1  0  0  0  0
  4  5  2  0  0  0  0
  5  6  1  0  0  0  0
  6  7  1  0  0  0  0
  6  9  1  0  0  0  0
  6 20  1  1  0  0  0
  7  8  1  0  0  0  0
  7 21  1  0  0  0  0
  7 22  1  0  0  0  0
  8 23  1  0  0  0  0
  8 24  1  0  0  0  0
  9 10  1  0  0  0  0
 10 11  1  0  0  0  0
 10 12  2  0  0  0  0
 11 13  1  0  0  0  0
 11 17  1  0  0  0  0
 13 14  1  0  0  0  0
 13 15  1  0  0  0  0
 13 16  1  0  0  0  0
 14 25  1  0  0  0  0
 14 26  1  0  0  0  0
 14 27  1  0  0  0  0
 15 28  1  0  0  0  0
 15 29  1  0  0  0  0
 15 30  1  0  0  0  0
 16 31  1  0  0  0  0
 16 32  1  0  0  0  0
 16 33  1  0  0  0  0
 17 34  1  0  0  0  0
 17 35  1  0  0  0  0
 17 36  1  0  0  0  0
M  END
$$$$
