Title Card Required
 OpenBabel03192317473D

 45 46  0  0  1  0  0  0  0  0999 V2000
    2.6406   -0.4674    0.3324 C   0  0  0  0  0  0  0  0  0  0  0  0
    3.1470    0.7384   -0.0269 N   0  0  0  0  0  0  0  0  0  0  0  0
    3.8519    1.2144    1.0430 C   0  0  0  0  0  0  0  0  0  0  0  0
    3.7248    0.2312    2.0068 C   0  0  0  0  0  0  0  0  0  0  0  0
    2.9635   -0.8117    1.5517 N   0  0  0  0  0  0  0  0  0  0  0  0
    1.7744   -1.0189   -0.7547 C   0  0  2  0  0  0  0  0  0  0  0  0
    2.1235   -0.1005   -1.9463 C   0  0  0  0  0  0  0  0  0  0  0  0
    2.7456    1.1844   -1.3501 C   0  0  0  0  0  0  0  0  0  0  0  0
    0.4215   -0.8824   -0.3238 O   0  0  0  0  0  0  0  0  0  0  0  0
   -0.5026   -1.5076   -1.0827 C   0  0  0  0  0  0  0  0  0  0  0  0
   -1.7378   -1.4434   -0.5278 N   0  0  0  0  0  0  0  0  0  0  0  0
   -0.2433   -2.0339   -2.1397 O   0  0  0  0  0  0  0  0  0  0  0  0
   -2.1138   -0.9724    0.8145 C   0  0  0  0  0  0  0  0  0  0  0  0
   -1.8568    0.5412    1.0227 C   0  0  0  0  0  0  0  0  0  0  0  0
   -3.5943   -1.3374    0.9836 C   0  0  0  0  0  0  0  0  0  0  0  0
   -1.3312   -1.7342    1.8976 C   0  0  0  0  0  0  0  0  0  0  0  0
   -2.2114    1.6044   -0.0458 C   0  0  0  0  0  0  0  0  0  0  0  0
   -3.6276    1.4580   -0.6097 C   0  0  0  0  0  0  0  0  0  0  0  0
   -2.1086    2.9643    0.6622 C   0  0  0  0  0  0  0  0  0  0  0  0
   -1.2153    1.6137   -1.2152 C   0  0  0  0  0  0  0  0  0  0  0  0
    4.3782    2.1635    1.0371 H   0  0  0  0  0  0  0  0  0  0  0  0
    4.1561    0.2299    3.0054 H   0  0  0  0  0  0  0  0  0  0  0  0
    1.9624   -2.0751   -0.9834 H   0  0  0  0  0  0  0  0  0  0  0  0
    2.8621   -0.6131   -2.5771 H   0  0  0  0  0  0  0  0  0  0  0  0
    1.2387    0.0925   -2.5639 H   0  0  0  0  0  0  0  0  0  0  0  0
    3.6101    1.5380   -1.9277 H   0  0  0  0  0  0  0  0  0  0  0  0
    2.0214    2.0090   -1.2710 H   0  0  0  0  0  0  0  0  0  0  0  0
   -2.4395   -1.9226   -1.0787 H   0  0  0  0  0  0  0  0  0  0  0  0
   -2.3961    0.8045    1.9493 H   0  0  0  0  0  0  0  0  0  0  0  0
   -0.7869    0.6665    1.2535 H   0  0  0  0  0  0  0  0  0  0  0  0
   -3.7111   -2.4317    0.9643 H   0  0  0  0  0  0  0  0  0  0  0  0
   -3.9594   -0.9765    1.9546 H   0  0  0  0  0  0  0  0  0  0  0  0
   -4.2289   -0.9088    0.1993 H   0  0  0  0  0  0  0  0  0  0  0  0
   -1.4962   -2.8164    1.7910 H   0  0  0  0  0  0  0  0  0  0  0  0
   -0.2553   -1.5306    1.8383 H   0  0  0  0  0  0  0  0  0  0  0  0
   -1.6866   -1.4275    2.8925 H   0  0  0  0  0  0  0  0  0  0  0  0
   -4.3818    1.4194    0.1916 H   0  0  0  0  0  0  0  0  0  0  0  0
   -3.8642    2.3190   -1.2540 H   0  0  0  0  0  0  0  0  0  0  0  0
   -3.7202    0.5513   -1.2250 H   0  0  0  0  0  0  0  0  0  0  0  0
   -1.1064    3.1057    1.0954 H   0  0  0  0  0  0  0  0  0  0  0  0
   -2.2943    3.7872   -0.0448 H   0  0  0  0  0  0  0  0  0  0  0  0
   -2.8438    3.0430    1.4777 H   0  0  0  0  0  0  0  0  0  0  0  0
   -0.1805    1.6355   -0.8422 H   0  0  0  0  0  0  0  0  0  0  0  0
   -1.3296    0.7372   -1.8676 H   0  0  0  0  0  0  0  0  0  0  0  0
   -1.3797    2.5091   -1.8352 H   0  0  0  0  0  0  0  0  0  0  0  0
  1  2  1  0  0  0  0
  1  5  2  0  0  0  0
  1  6  1  0  0  0  0
  2  3  1  0  0  0  0
  2  8  1  0  0  0  0
  3  4  2  0  0  0  0
  3 21  1  0  0  0  0
  4  5  1  0  0  0  0
  4 22  1  0  0  0  0
  6  7  1  0  0  0  0
  6  9  1  0  0  0  0
  6 23  1  6  0  0  0
  7  8  1  0  0  0  0
  7 24  1  0  0  0  0
  7 25  1  0  0  0  0
  8 26  1  0  0  0  0
  8 27  1  0  0  0  0
  9 10  1  0  0  0  0
 10 11  1  0  0  0  0
 10 12  2  0  0  0  0
 11 13  1  0  0  0  0
 11 28  1  0  0  0  0
 13 14  1  0  0  0  0
 13 15  1  0  0  0  0
 13 16  1  0  0  0  0
 14 17  1  0  0  0  0
 14 29  1  0  0  0  0
 14 30  1  0  0  0  0
 15 31  1  0  0  0  0
 15 32  1  0  0  0  0
 15 33  1  0  0  0  0
 16 34  1  0  0  0  0
 16 35  1  0  0  0  0
 16 36  1  0  0  0  0
 17 18  1  0  0  0  0
 17 19  1  0  0  0  0
 17 20  1  0  0  0  0
 18 37  1  0  0  0  0
 18 38  1  0  0  0  0
 18 39  1  0  0  0  0
 19 40  1  0  0  0  0
 19 41  1  0  0  0  0
 19 42  1  0  0  0  0
 20 43  1  0  0  0  0
 20 44  1  0  0  0  0
 20 45  1  0  0  0  0
M  END
$$$$
