Title Card Required
 OpenBabel03192317503D

 31 33  0  0  1  0  0  0  0  0999 V2000
    3.2223   -1.3571   -0.9090 N   0  0  0  0  0  0  0  0  0  0  0  0
    3.7200   -1.3360   -2.1810 C   0  0  0  0  0  0  0  0  0  0  0  0
    4.0360   -0.0087   -2.4067 C   0  0  0  0  0  0  0  0  0  0  0  0
    3.7351    0.7640   -1.3175 N   0  0  0  0  0  0  0  0  0  0  0  0
    3.2525   -0.0805   -0.4454 C   0  0  0  0  0  0  0  0  0  0  0  0
    2.6192   -0.0206    0.9125 C   0  0  2  0  0  0  0  0  0  0  0  0
    2.6468   -1.4993    1.3338 C   0  0  0  0  0  0  0  0  0  0  0  0
    2.6268   -2.3056    0.0163 C   0  0  0  0  0  0  0  0  0  0  0  0
    1.2480    0.3751    0.7847 O   0  0  0  0  0  0  0  0  0  0  0  0
    0.9209    1.6130    1.1787 C   0  0  0  0  0  0  0  0  0  0  0  0
    1.6813    2.4367    1.6021 O   0  0  0  0  0  0  0  0  0  0  0  0
   -0.4357    1.8281    1.0356 N   0  0  0  0  0  0  0  0  0  0  0  0
   -1.3549    0.9106    0.5150 C   0  0  0  0  0  0  0  0  0  0  0  0
   -1.6327   -0.3110    1.1520 C   0  0  0  0  0  0  0  0  0  0  0  0
   -2.5423   -1.2236    0.6269 C   0  0  0  0  0  0  0  0  0  0  0  0
   -3.2224   -0.9023   -0.5444 C   0  0  0  0  0  0  0  0  0  0  0  0
   -3.0094    0.3122   -1.1886 C   0  0  0  0  0  0  0  0  0  0  0  0
   -2.0757    1.1954   -0.6560 C   0  0  0  0  0  0  0  0  0  0  0  0
   -1.7953    2.7057   -1.4561 Cl  0  0  0  0  0  0  0  0  0  0  0  0
   -0.8795   -0.6826    2.6667 Cl  0  0  0  0  0  0  0  0  0  0  0  0
   -4.3626   -2.0264   -1.2029 Cl  0  0  0  0  0  0  0  0  0  0  0  0
    3.8207   -2.2231   -2.7983 H   0  0  0  0  0  0  0  0  0  0  0  0
    4.4750    0.4189   -3.3055 H   0  0  0  0  0  0  0  0  0  0  0  0
    3.1209    0.6629    1.6062 H   0  0  0  0  0  0  0  0  0  0  0  0
    3.5844   -1.6966    1.8713 H   0  0  0  0  0  0  0  0  0  0  0  0
    1.8011   -1.7337    1.9913 H   0  0  0  0  0  0  0  0  0  0  0  0
    3.2134   -3.2317    0.0739 H   0  0  0  0  0  0  0  0  0  0  0  0
    1.6023   -2.5540   -0.2998 H   0  0  0  0  0  0  0  0  0  0  0  0
   -0.6948    2.8088    1.0482 H   0  0  0  0  0  0  0  0  0  0  0  0
   -2.7327   -2.1635    1.1424 H   0  0  0  0  0  0  0  0  0  0  0  0
   -3.5499    0.5668   -2.0985 H   0  0  0  0  0  0  0  0  0  0  0  0
  1  2  1  0  0  0  0
  1  5  1  0  0  0  0
  1  8  1  0  0  0  0
  2  3  2  0  0  0  0
  2 22  1  0  0  0  0
  3  4  1  0  0  0  0
  3 23  1  0  0  0  0
  4  5  2  0  0  0  0
  5  6  1  0  0  0  0
  6  7  1  0  0  0  0
  6  9  1  0  0  0  0
  6 24  1  1  0  0  0
  7  8  1  0  0  0  0
  7 25  1  0  0  0  0
  7 26  1  0  0  0  0
  8 27  1  0  0  0  0
  8 28  1  0  0  0  0
  9 10  1  0  0  0  0
 10 11  2  0  0  0  0
 10 12  1  0  0  0  0
 12 13  1  0  0  0  0
 12 29  1  0  0  0  0
 13 14  2  0  0  0  0
 13 18  1  0  0  0  0
 14 15  1  0  0  0  0
 14 20  1  0  0  0  0
 15 16  2  0  0  0  0
 15 30  1  0  0  0  0
 16 17  1  0  0  0  0
 16 21  1  0  0  0  0
 17 18  2  0  0  0  0
 17 31  1  0  0  0  0
 18 19  1  0  0  0  0
M  END
$$$$
