Title Card Required
 OpenBabel03192317453D

 68 75  0  0  0  0  0  0  0  0999 V2000
    2.3507    0.7686   -0.2221 N   0  0  0  0  0  0  0  0  0  0  0  0
    2.0554   -0.4957   -0.8309 C   0  0  0  0  0  0  0  0  0  0  0  0
    2.4043   -1.6897   -0.1724 C   0  0  0  0  0  0  0  0  0  0  0  0
    3.1576   -1.7112    1.0860 C   0  0  0  0  0  0  0  0  0  0  0  0
    4.0917   -0.8318    1.4951 C   0  0  0  0  0  0  0  0  0  0  0  0
    4.5618    0.3595    0.7808 C   0  0  0  0  0  0  0  0  0  0  0  0
    3.7330    1.1040   -0.0803 C   0  0  0  0  0  0  0  0  0  0  0  0
    2.0279   -2.9111   -0.7526 C   0  0  0  0  0  0  0  0  0  0  0  0
    1.3665   -2.9579   -1.9733 C   0  0  0  0  0  0  0  0  0  0  0  0
    1.0687   -1.7689   -2.6410 C   0  0  0  0  0  0  0  0  0  0  0  0
    1.4186   -0.5462   -2.0760 C   0  0  0  0  0  0  0  0  0  0  0  0
    4.2445    2.2126   -0.7603 C   0  0  0  0  0  0  0  0  0  0  0  0
    5.5643    2.6131   -0.5748 C   0  0  0  0  0  0  0  0  0  0  0  0
    6.3902    1.8942    0.2894 C   0  0  0  0  0  0  0  0  0  0  0  0
    5.8889    0.7826    0.9564 C   0  0  0  0  0  0  0  0  0  0  0  0
    0.1497    1.7145   -0.9387 O   0  0  0  0  0  0  0  0  0  0  0  0
    1.2293    1.9349    0.3292 P   0  0  0  0  0  0  0  0  0  0  0  0
    0.3379    1.2172    1.5510 O   0  0  0  0  0  0  0  0  0  0  0  0
   -0.2192   -0.0310    1.4137 C   0  0  0  0  0  0  0  0  0  0  0  0
   -1.2560   -0.2260    0.4960 C   0  0  0  0  0  0  0  0  0  0  0  0
   -1.9420    0.9729   -0.0660 C   0  0  0  0  0  0  0  0  0  0  0  0
   -1.1963    1.9113   -0.7823 C   0  0  0  0  0  0  0  0  0  0  0  0
    0.2686   -1.0845    2.1829 C   0  0  0  0  0  0  0  0  0  0  0  0
   -0.1992   -2.3652    1.9286 C   0  0  0  0  0  0  0  0  0  0  0  0
   -1.0906   -2.6202    0.8785 C   0  0  0  0  0  0  0  0  0  0  0  0
   -1.4248   -4.0563    0.5349 C   0  0  0  0  0  0  0  0  0  0  0  0
   -2.6319   -4.1862   -0.3854 C   0  0  0  0  0  0  0  0  0  0  0  0
   -2.4780   -3.2200   -1.5548 C   0  0  0  0  0  0  0  0  0  0  0  0
   -2.5148   -1.7781   -1.0562 C   0  0  0  0  0  0  0  0  0  0  0  0
   -1.6219   -1.5438    0.1488 C   0  0  0  0  0  0  0  0  0  0  0  0
   -1.7964    3.0315   -1.3539 C   0  0  0  0  0  0  0  0  0  0  0  0
   -3.1577    3.2236   -1.1748 C   0  0  0  0  0  0  0  0  0  0  0  0
   -3.9215    2.3501   -0.3901 C   0  0  0  0  0  0  0  0  0  0  0  0
   -5.3817    2.6831   -0.1526 C   0  0  0  0  0  0  0  0  0  0  0  0
   -6.1592    1.5530    0.5108 C   0  0  0  0  0  0  0  0  0  0  0  0
   -5.3519    1.0019    1.6800 C   0  0  0  0  0  0  0  0  0  0  0  0
   -4.0738    0.3474    1.1643 C   0  0  0  0  0  0  0  0  0  0  0  0
   -3.3086    1.2271    0.1916 C   0  0  0  0  0  0  0  0  0  0  0  0
    2.9977   -2.5987    1.7056 H   0  0  0  0  0  0  0  0  0  0  0  0
    4.6332   -1.0658    2.4162 H   0  0  0  0  0  0  0  0  0  0  0  0
    2.2751   -3.8367   -0.2273 H   0  0  0  0  0  0  0  0  0  0  0  0
    1.0905   -3.9198   -2.4091 H   0  0  0  0  0  0  0  0  0  0  0  0
    0.5582   -1.7920   -3.6052 H   0  0  0  0  0  0  0  0  0  0  0  0
    1.1812    0.3894   -2.5776 H   0  0  0  0  0  0  0  0  0  0  0  0
    3.5819    2.7643   -1.4293 H   0  0  0  0  0  0  0  0  0  0  0  0
    5.9458    3.4884   -1.1022 H   0  0  0  0  0  0  0  0  0  0  0  0
    7.4252    2.2017    0.4438 H   0  0  0  0  0  0  0  0  0  0  0  0
    6.5320    0.2166    1.6337 H   0  0  0  0  0  0  0  0  0  0  0  0
    1.0287   -0.8808    2.9366 H   0  0  0  0  0  0  0  0  0  0  0  0
    0.1777   -3.2055    2.5180 H   0  0  0  0  0  0  0  0  0  0  0  0
   -1.5725   -4.6270    1.4648 H   0  0  0  0  0  0  0  0  0  0  0  0
   -0.5465   -4.5030    0.0342 H   0  0  0  0  0  0  0  0  0  0  0  0
   -3.5548   -3.9440    0.1694 H   0  0  0  0  0  0  0  0  0  0  0  0
   -2.7304   -5.2239   -0.7361 H   0  0  0  0  0  0  0  0  0  0  0  0
   -1.5133   -3.4131   -2.0540 H   0  0  0  0  0  0  0  0  0  0  0  0
   -3.2662   -3.3721   -2.3064 H   0  0  0  0  0  0  0  0  0  0  0  0
   -2.2075   -1.0841   -1.8537 H   0  0  0  0  0  0  0  0  0  0  0  0
   -3.5573   -1.5118   -0.8198 H   0  0  0  0  0  0  0  0  0  0  0  0
   -1.1825    3.7269   -1.9265 H   0  0  0  0  0  0  0  0  0  0  0  0
   -3.6443    4.0918   -1.6262 H   0  0  0  0  0  0  0  0  0  0  0  0
   -5.8451    2.9687   -1.1097 H   0  0  0  0  0  0  0  0  0  0  0  0
   -5.4329    3.5795    0.4898 H   0  0  0  0  0  0  0  0  0  0  0  0
   -6.3394    0.7435   -0.2173 H   0  0  0  0  0  0  0  0  0  0  0  0
   -7.1445    1.9148    0.8388 H   0  0  0  0  0  0  0  0  0  0  0  0
   -5.1005    1.8270    2.3679 H   0  0  0  0  0  0  0  0  0  0  0  0
   -5.9346    0.2699    2.2576 H   0  0  0  0  0  0  0  0  0  0  0  0
   -3.4068    0.0805    1.9978 H   0  0  0  0  0  0  0  0  0  0  0  0
   -4.3429   -0.6077    0.6855 H   0  0  0  0  0  0  0  0  0  0  0  0
  1  2  1  0  0  0  0
  1  7  1  0  0  0  0
  1 17  1  0  0  0  0
  2  3  2  0  0  0  0
  2 11  1  0  0  0  0
  3  4  1  0  0  0  0
  3  8  1  0  0  0  0
  4  5  2  0  0  0  0
  4 39  1  0  0  0  0
  5  6  1  0  0  0  0
  5 40  1  0  0  0  0
  6  7  2  0  0  0  0
  6 15  1  0  0  0  0
  7 12  1  0  0  0  0
  8  9  2  0  0  0  0
  8 41  1  0  0  0  0
  9 10  1  0  0  0  0
  9 42  1  0  0  0  0
 10 11  2  0  0  0  0
 10 43  1  0  0  0  0
 11 44  1  0  0  0  0
 12 13  2  0  0  0  0
 12 45  1  0  0  0  0
 13 14  1  0  0  0  0
 13 46  1  0  0  0  0
 14 15  2  0  0  0  0
 14 47  1  0  0  0  0
 15 48  1  0  0  0  0
 16 17  1  0  0  0  0
 16 22  1  0  0  0  0
 17 18  1  0  0  0  0
 18 19  1  0  0  0  0
 19 20  2  0  0  0  0
 19 23  1  0  0  0  0
 20 21  1  0  0  0  0
 20 30  1  0  0  0  0
 21 22  2  0  0  0  0
 21 38  1  0  0  0  0
 22 31  1  0  0  0  0
 23 24  2  0  0  0  0
 23 49  1  0  0  0  0
 24 25  1  0  0  0  0
 24 50  1  0  0  0  0
 25 26  1  0  0  0  0
 25 30  2  0  0  0  0
 26 27  1  0  0  0  0
 26 51  1  0  0  0  0
 26 52  1  0  0  0  0
 27 28  1  0  0  0  0
 27 53  1  0  0  0  0
 27 54  1  0  0  0  0
 28 29  1  0  0  0  0
 28 55  1  0  0  0  0
 28 56  1  0  0  0  0
 29 30  1  0  0  0  0
 29 57  1  0  0  0  0
 29 58  1  0  0  0  0
 31 32  2  0  0  0  0
 31 59  1  0  0  0  0
 32 33  1  0  0  0  0
 32 60  1  0  0  0  0
 33 34  1  0  0  0  0
 33 38  2  0  0  0  0
 34 35  1  0  0  0  0
 34 61  1  0  0  0  0
 34 62  1  0  0  0  0
 35 36  1  0  0  0  0
 35 63  1  0  0  0  0
 35 64  1  0  0  0  0
 36 37  1  0  0  0  0
 36 65  1  0  0  0  0
 36 66  1  0  0  0  0
 37 38  1  0  0  0  0
 37 67  1  0  0  0  0
 37 68  1  0  0  0  0
M  END
$$$$
