Title Card Required
 OpenBabel03192317443D

 61 65  0  0  1  0  0  0  0  0999 V2000
    2.2876    0.0033   -0.4347 C   0  0  0  0  0  0  0  0  0  0  0  0
    1.1422   -0.5300   -0.5663 N   0  0  0  0  0  0  0  0  0  0  0  0
    3.5782   -0.7622   -0.3023 C   0  0  0  0  0  0  0  0  0  0  0  0
    4.4269   -0.6029    0.7992 C   0  0  0  0  0  0  0  0  0  0  0  0
    5.5866   -1.3700    0.8562 C   0  0  0  0  0  0  0  0  0  0  0  0
    5.8664   -2.2499   -0.1858 C   0  0  0  0  0  0  0  0  0  0  0  0
    4.9596   -2.3299   -1.2421 C   0  0  0  0  0  0  0  0  0  0  0  0
    3.8415   -1.6121   -1.2989 N   0  0  0  0  0  0  0  0  0  0  0  0
    2.3467    1.5021   -0.4567 C   0  0  0  0  0  0  0  0  0  0  0  0
    1.3617    2.2147   -1.1532 C   0  0  0  0  0  0  0  0  0  0  0  0
    1.4129    3.6021   -1.1323 C   0  0  0  0  0  0  0  0  0  0  0  0
    2.4380    4.2276   -0.4234 C   0  0  0  0  0  0  0  0  0  0  0  0
    3.3747    3.4272    0.2268 C   0  0  0  0  0  0  0  0  0  0  0  0
    3.3382    2.0971    0.2058 N   0  0  0  0  0  0  0  0  0  0  0  0
    0.9272   -1.9613   -0.5476 C   0  0  2  0  0  0  0  0  0  0  0  0
    0.6456   -2.4493   -1.9737 C   0  0  0  0  0  0  0  0  0  0  0  0
   -0.2126   -2.2850    0.4105 C   0  0  0  0  0  0  0  0  0  0  0  0
   -1.4379   -1.5837    0.4476 C   0  0  0  0  0  0  0  0  0  0  0  0
   -2.4151   -1.9948    1.3651 C   0  0  0  0  0  0  0  0  0  0  0  0
   -2.2064   -3.0684    2.2281 C   0  0  0  0  0  0  0  0  0  0  0  0
   -0.9984   -3.7566    2.1896 C   0  0  0  0  0  0  0  0  0  0  0  0
   -0.0154   -3.3562    1.2890 C   0  0  0  0  0  0  0  0  0  0  0  0
   -1.7841   -0.1687   -0.7192 P   0  0  0  0  0  0  0  0  0  0  0  0
   -3.6367   -0.1504   -0.6846 C   0  0  0  0  0  0  0  0  0  0  0  0
   -4.2774   -0.9220   -1.6634 C   0  0  0  0  0  0  0  0  0  0  0  0
   -5.6682   -0.9928   -1.7243 C   0  0  0  0  0  0  0  0  0  0  0  0
   -6.4426   -0.2740   -0.8146 C   0  0  0  0  0  0  0  0  0  0  0  0
   -5.8182    0.5088    0.1560 C   0  0  0  0  0  0  0  0  0  0  0  0
   -4.4263    0.5682    0.2233 C   0  0  0  0  0  0  0  0  0  0  0  0
   -1.3962    1.3015    0.3234 C   0  0  0  0  0  0  0  0  0  0  0  0
   -1.8751    2.5519   -0.0973 C   0  0  0  0  0  0  0  0  0  0  0  0
   -1.5180    3.7165    0.5777 C   0  0  0  0  0  0  0  0  0  0  0  0
   -0.6518    3.6532    1.6705 C   0  0  0  0  0  0  0  0  0  0  0  0
   -0.1657    2.4173    2.0916 C   0  0  0  0  0  0  0  0  0  0  0  0
   -0.5427    1.2473    1.4299 C   0  0  0  0  0  0  0  0  0  0  0  0
    4.1770    0.1193    1.5733 H   0  0  0  0  0  0  0  0  0  0  0  0
    6.2680   -1.2770    1.7035 H   0  0  0  0  0  0  0  0  0  0  0  0
    6.7667   -2.8650   -0.1848 H   0  0  0  0  0  0  0  0  0  0  0  0
    5.1442   -3.0095   -2.0795 H   0  0  0  0  0  0  0  0  0  0  0  0
    0.5799    1.6675   -1.6798 H   0  0  0  0  0  0  0  0  0  0  0  0
    0.6582    4.1884   -1.6591 H   0  0  0  0  0  0  0  0  0  0  0  0
    2.5174    5.3141   -0.3786 H   0  0  0  0  0  0  0  0  0  0  0  0
    4.1966    3.8834    0.7873 H   0  0  0  0  0  0  0  0  0  0  0  0
    1.8146   -2.5040   -0.1829 H   0  0  0  0  0  0  0  0  0  0  0  0
    0.4338   -3.5276   -1.9600 H   0  0  0  0  0  0  0  0  0  0  0  0
   -0.2167   -1.9181   -2.3985 H   0  0  0  0  0  0  0  0  0  0  0  0
    1.5336   -2.2607   -2.5917 H   0  0  0  0  0  0  0  0  0  0  0  0
   -3.3690   -1.4682    1.4070 H   0  0  0  0  0  0  0  0  0  0  0  0
   -2.9902   -3.3606    2.9285 H   0  0  0  0  0  0  0  0  0  0  0  0
   -0.8160   -4.5975    2.8607 H   0  0  0  0  0  0  0  0  0  0  0  0
    0.9395   -3.8866    1.2623 H   0  0  0  0  0  0  0  0  0  0  0  0
   -3.6743   -1.4740   -2.3893 H   0  0  0  0  0  0  0  0  0  0  0  0
   -6.1484   -1.6027   -2.4914 H   0  0  0  0  0  0  0  0  0  0  0  0
   -7.5317   -0.3194   -0.8650 H   0  0  0  0  0  0  0  0  0  0  0  0
   -6.4183    1.0757    0.8700 H   0  0  0  0  0  0  0  0  0  0  0  0
   -3.9495    1.1774    0.9942 H   0  0  0  0  0  0  0  0  0  0  0  0
   -2.5409    2.6109   -0.9632 H   0  0  0  0  0  0  0  0  0  0  0  0
   -1.9084    4.6791    0.2415 H   0  0  0  0  0  0  0  0  0  0  0  0
   -0.3574    4.5654    2.1923 H   0  0  0  0  0  0  0  0  0  0  0  0
    0.5115    2.3594    2.9456 H   0  0  0  0  0  0  0  0  0  0  0  0
   -0.1578    0.2834    1.7690 H   0  0  0  0  0  0  0  0  0  0  0  0
  1  2  2  0  0  0  0
  1  3  1  0  0  0  0
  1  9  1  0  0  0  0
  2 15  1  0  0  0  0
  3  4  2  0  0  0  0
  3  8  1  0  0  0  0
  4  5  1  0  0  0  0
  4 36  1  0  0  0  0
  5  6  2  0  0  0  0
  5 37  1  0  0  0  0
  6  7  1  0  0  0  0
  6 38  1  0  0  0  0
  7  8  2  0  0  0  0
  7 39  1  0  0  0  0
  9 10  2  0  0  0  0
  9 14  1  0  0  0  0
 10 11  1  0  0  0  0
 10 40  1  0  0  0  0
 11 12  2  0  0  0  0
 11 41  1  0  0  0  0
 12 13  1  0  0  0  0
 12 42  1  0  0  0  0
 13 14  2  0  0  0  0
 13 43  1  0  0  0  0
 15 16  1  0  0  0  0
 15 17  1  0  0  0  0
 15 44  1  1  0  0  0
 16 45  1  0  0  0  0
 16 46  1  0  0  0  0
 16 47  1  0  0  0  0
 17 18  2  0  0  0  0
 17 22  1  0  0  0  0
 18 19  1  0  0  0  0
 18 23  1  0  0  0  0
 19 20  2  0  0  0  0
 19 48  1  0  0  0  0
 20 21  1  0  0  0  0
 20 49  1  0  0  0  0
 21 22  2  0  0  0  0
 21 50  1  0  0  0  0
 22 51  1  0  0  0  0
 23 24  1  0  0  0  0
 23 30  1  0  0  0  0
 24 25  2  0  0  0  0
 24 29  1  0  0  0  0
 25 26  1  0  0  0  0
 25 52  1  0  0  0  0
 26 27  2  0  0  0  0
 26 53  1  0  0  0  0
 27 28  1  0  0  0  0
 27 54  1  0  0  0  0
 28 29  2  0  0  0  0
 28 55  1  0  0  0  0
 29 56  1  0  0  0  0
 30 31  2  0  0  0  0
 30 35  1  0  0  0  0
 31 32  1  0  0  0  0
 31 57  1  0  0  0  0
 32 33  2  0  0  0  0
 32 58  1  0  0  0  0
 33 34  1  0  0  0  0
 33 59  1  0  0  0  0
 34 35  2  0  0  0  0
 34 60  1  0  0  0  0
 35 61  1  0  0  0  0
M  END
$$$$
