Title Card Required
 OpenBabel03192317463D

122127  0  0  0  0  0  0  0  0999 V2000
    0.2691   -2.5632   -0.5688 C   0  0  0  0  0  0  0  0  0  0  0  0
    1.5957   -2.1189   -0.6811 C   0  0  0  0  0  0  0  0  0  0  0  0
    2.2948   -2.2944   -1.8819 C   0  0  0  0  0  0  0  0  0  0  0  0
    1.6675   -2.8953   -2.9672 C   0  0  0  0  0  0  0  0  0  0  0  0
    0.3444   -3.3233   -2.8778 C   0  0  0  0  0  0  0  0  0  0  0  0
   -0.3544   -3.1630   -1.6796 C   0  0  0  0  0  0  0  0  0  0  0  0
   -0.4967   -2.3822    0.7015 C   0  0  0  0  0  0  0  0  0  0  0  0
   -1.5711   -1.4910    0.8047 C   0  0  0  0  0  0  0  0  0  0  0  0
   -2.2441   -1.3458    2.0301 C   0  0  0  0  0  0  0  0  0  0  0  0
   -1.8278   -2.0593    3.1440 C   0  0  0  0  0  0  0  0  0  0  0  0
   -0.7563   -2.9521    3.0562 C   0  0  0  0  0  0  0  0  0  0  0  0
   -0.1048   -3.1301    1.8364 C   0  0  0  0  0  0  0  0  0  0  0  0
    0.9155   -3.9947    1.6555 O   0  0  0  0  0  0  0  0  0  0  0  0
    1.5661   -4.5034    2.7891 C   0  0  0  0  0  0  0  0  0  0  0  0
   -1.6453   -3.5468   -1.5224 O   0  0  0  0  0  0  0  0  0  0  0  0
   -2.4182   -3.7413   -2.6820 C   0  0  0  0  0  0  0  0  0  0  0  0
    2.3333   -1.2706    0.7907 P   0  0  0  0  0  0  0  0  0  0  0  0
    4.1149   -1.1950    0.2985 C   0  0  0  0  0  0  0  0  0  0  0  0
    4.7205   -0.0428   -0.2220 C   0  0  0  0  0  0  0  0  0  0  0  0
    6.0825   -0.0524   -0.5253 C   0  0  0  0  0  0  0  0  0  0  0  0
    6.8528   -1.2138   -0.3171 C   0  0  0  0  0  0  0  0  0  0  0  0
    6.2406   -2.3623    0.1984 C   0  0  0  0  0  0  0  0  0  0  0  0
    4.8773   -2.3395    0.5187 C   0  0  0  0  0  0  0  0  0  0  0  0
    6.9100   -3.5227    0.3946 O   0  0  0  0  0  0  0  0  0  0  0  0
    8.2083   -3.4919    0.9548 C   0  0  0  0  0  0  0  0  0  0  0  0
    8.1800   -1.2126   -0.6280 O   0  0  0  0  0  0  0  0  0  0  0  0
    8.4480   -1.3651   -2.0078 C   0  0  0  0  0  0  0  0  0  0  0  0
    6.7540    1.0019   -1.0412 O   0  0  0  0  0  0  0  0  0  0  0  0
    6.0408    2.1930   -1.2555 C   0  0  0  0  0  0  0  0  0  0  0  0
    1.8454    0.4771    0.4743 C   0  0  0  0  0  0  0  0  0  0  0  0
    2.1048    1.3720    1.5193 C   0  0  0  0  0  0  0  0  0  0  0  0
    1.9715    2.7523    1.3542 C   0  0  0  0  0  0  0  0  0  0  0  0
    1.5346    3.2698    0.1132 C   0  0  0  0  0  0  0  0  0  0  0  0
    1.2423    2.3557   -0.9175 C   0  0  0  0  0  0  0  0  0  0  0  0
    1.3956    0.9798   -0.7455 C   0  0  0  0  0  0  0  0  0  0  0  0
    0.8091    2.8342   -2.1194 O   0  0  0  0  0  0  0  0  0  0  0  0
    1.8237    3.3889   -2.9288 C   0  0  0  0  0  0  0  0  0  0  0  0
    1.3861    4.5703   -0.2064 O   0  0  0  0  0  0  0  0  0  0  0  0
    1.2945    5.5977    0.7704 C   0  0  0  0  0  0  0  0  0  0  0  0
    2.2497    3.6389    2.3470 O   0  0  0  0  0  0  0  0  0  0  0  0
    2.8964    3.1703    3.4996 C   0  0  0  0  0  0  0  0  0  0  0  0
   -2.1357   -0.5979   -0.7200 P   0  0  0  0  0  0  0  0  0  0  0  0
   -3.9550   -0.8822   -0.5178 C   0  0  0  0  0  0  0  0  0  0  0  0
   -4.3688   -2.1954   -0.2336 C   0  0  0  0  0  0  0  0  0  0  0  0
   -5.7243   -2.5020   -0.1806 C   0  0  0  0  0  0  0  0  0  0  0  0
   -6.7000   -1.5080   -0.4214 C   0  0  0  0  0  0  0  0  0  0  0  0
   -6.2774   -0.1995   -0.6903 C   0  0  0  0  0  0  0  0  0  0  0  0
   -4.9059    0.1026   -0.7436 C   0  0  0  0  0  0  0  0  0  0  0  0
   -7.1171    0.8279   -0.9519 O   0  0  0  0  0  0  0  0  0  0  0  0
   -8.3824    0.8976   -0.3346 C   0  0  0  0  0  0  0  0  0  0  0  0
   -8.0249   -1.8257   -0.4583 O   0  0  0  0  0  0  0  0  0  0  0  0
   -8.6127   -2.2662    0.7484 C   0  0  0  0  0  0  0  0  0  0  0  0
   -6.2046   -3.7446    0.0707 O   0  0  0  0  0  0  0  0  0  0  0  0
   -5.2804   -4.7507    0.3967 C   0  0  0  0  0  0  0  0  0  0  0  0
   -1.9666    1.1851   -0.2878 C   0  0  0  0  0  0  0  0  0  0  0  0
   -1.5879    1.6795    0.9696 C   0  0  0  0  0  0  0  0  0  0  0  0
   -1.4397    3.0533    1.1481 C   0  0  0  0  0  0  0  0  0  0  0  0
   -1.6862    3.9466    0.0875 C   0  0  0  0  0  0  0  0  0  0  0  0
   -2.0124    3.4450   -1.1743 C   0  0  0  0  0  0  0  0  0  0  0  0
   -2.1515    2.0636   -1.3522 C   0  0  0  0  0  0  0  0  0  0  0  0
   -2.2033    4.2446   -2.2450 O   0  0  0  0  0  0  0  0  0  0  0  0
   -1.3003    5.3170   -2.4550 C   0  0  0  0  0  0  0  0  0  0  0  0
   -1.5848    5.2933    0.2911 O   0  0  0  0  0  0  0  0  0  0  0  0
   -2.6995    5.8508    0.9577 C   0  0  0  0  0  0  0  0  0  0  0  0
   -1.0549    3.6371    2.3116 O   0  0  0  0  0  0  0  0  0  0  0  0
   -0.7894    2.7999    3.4068 C   0  0  0  0  0  0  0  0  0  0  0  0
    3.3267   -1.9515   -1.9684 H   0  0  0  0  0  0  0  0  0  0  0  0
    2.2098   -3.0287   -3.9047 H   0  0  0  0  0  0  0  0  0  0  0  0
   -0.1354   -3.7824   -3.7407 H   0  0  0  0  0  0  0  0  0  0  0  0
   -3.1039   -0.6755    2.0931 H   0  0  0  0  0  0  0  0  0  0  0  0
   -2.3447   -1.9368    4.0976 H   0  0  0  0  0  0  0  0  0  0  0  0
   -0.4474   -3.5149    3.9360 H   0  0  0  0  0  0  0  0  0  0  0  0
    1.9018   -3.6842    3.4470 H   0  0  0  0  0  0  0  0  0  0  0  0
    0.9184   -5.1895    3.3601 H   0  0  0  0  0  0  0  0  0  0  0  0
    2.4383   -5.0602    2.4279 H   0  0  0  0  0  0  0  0  0  0  0  0
   -2.3347   -2.8726   -3.3554 H   0  0  0  0  0  0  0  0  0  0  0  0
   -2.1223   -4.6569   -3.2198 H   0  0  0  0  0  0  0  0  0  0  0  0
   -3.4605   -3.8363   -2.3546 H   0  0  0  0  0  0  0  0  0  0  0  0
    4.1238    0.8513   -0.3945 H   0  0  0  0  0  0  0  0  0  0  0  0
    4.4387   -3.2476    0.9371 H   0  0  0  0  0  0  0  0  0  0  0  0
    8.9855   -3.3995    0.1845 H   0  0  0  0  0  0  0  0  0  0  0  0
    8.3156   -2.6530    1.6589 H   0  0  0  0  0  0  0  0  0  0  0  0
    8.3369   -4.4397    1.4934 H   0  0  0  0  0  0  0  0  0  0  0  0
    8.0660   -2.3322   -2.3763 H   0  0  0  0  0  0  0  0  0  0  0  0
    7.9948   -0.5466   -2.5875 H   0  0  0  0  0  0  0  0  0  0  0  0
    9.5375   -1.3339   -2.1303 H   0  0  0  0  0  0  0  0  0  0  0  0
    5.2251    2.0503   -1.9836 H   0  0  0  0  0  0  0  0  0  0  0  0
    5.6105    2.5797   -0.3168 H   0  0  0  0  0  0  0  0  0  0  0  0
    6.7573    2.9204   -1.6523 H   0  0  0  0  0  0  0  0  0  0  0  0
    2.4556    0.9761    2.4734 H   0  0  0  0  0  0  0  0  0  0  0  0
    1.1653    0.3284   -1.5919 H   0  0  0  0  0  0  0  0  0  0  0  0
    2.3044    4.2464   -2.4323 H   0  0  0  0  0  0  0  0  0  0  0  0
    2.5856    2.6284   -3.1719 H   0  0  0  0  0  0  0  0  0  0  0  0
    1.3470    3.7260   -3.8576 H   0  0  0  0  0  0  0  0  0  0  0  0
    0.5967    5.3156    1.5665 H   0  0  0  0  0  0  0  0  0  0  0  0
    2.2827    5.8273    1.1913 H   0  0  0  0  0  0  0  0  0  0  0  0
    0.8951    6.4673    0.2359 H   0  0  0  0  0  0  0  0  0  0  0  0
    2.2539    2.4896    4.0829 H   0  0  0  0  0  0  0  0  0  0  0  0
    3.8332    2.6446    3.2501 H   0  0  0  0  0  0  0  0  0  0  0  0
    3.1257    4.0513    4.1101 H   0  0  0  0  0  0  0  0  0  0  0  0
   -3.6152   -2.9626   -0.0550 H   0  0  0  0  0  0  0  0  0  0  0  0
   -4.6322    1.1375   -0.9526 H   0  0  0  0  0  0  0  0  0  0  0  0
   -9.1320    0.2952   -0.8636 H   0  0  0  0  0  0  0  0  0  0  0  0
   -8.3301    0.5647    0.7152 H   0  0  0  0  0  0  0  0  0  0  0  0
   -8.6764    1.9550   -0.3559 H   0  0  0  0  0  0  0  0  0  0  0  0
   -8.3226   -3.2989    0.9832 H   0  0  0  0  0  0  0  0  0  0  0  0
   -8.3257   -1.6121    1.5899 H   0  0  0  0  0  0  0  0  0  0  0  0
   -9.7004   -2.2140    0.6096 H   0  0  0  0  0  0  0  0  0  0  0  0
   -4.5900   -4.9552   -0.4381 H   0  0  0  0  0  0  0  0  0  0  0  0
   -4.6845   -4.4776    1.2833 H   0  0  0  0  0  0  0  0  0  0  0  0
   -5.8617   -5.6546    0.6103 H   0  0  0  0  0  0  0  0  0  0  0  0
   -1.3698    0.9935    1.7850 H   0  0  0  0  0  0  0  0  0  0  0  0
   -2.3693    1.7063   -2.3603 H   0  0  0  0  0  0  0  0  0  0  0  0
   -1.7072    6.2616   -2.0668 H   0  0  0  0  0  0  0  0  0  0  0  0
   -0.3352    5.1130   -1.9692 H   0  0  0  0  0  0  0  0  0  0  0  0
   -1.1608    5.4023   -3.5418 H   0  0  0  0  0  0  0  0  0  0  0  0
   -3.6236    5.6858    0.3796 H   0  0  0  0  0  0  0  0  0  0  0  0
   -2.8140    5.4154    1.9626 H   0  0  0  0  0  0  0  0  0  0  0  0
   -2.5160    6.9287    1.0491 H   0  0  0  0  0  0  0  0  0  0  0  0
   -1.6894    2.2389    3.7099 H   0  0  0  0  0  0  0  0  0  0  0  0
    0.0123    2.0801    3.1716 H   0  0  0  0  0  0  0  0  0  0  0  0
   -0.4702    3.4501    4.2296 H   0  0  0  0  0  0  0  0  0  0  0  0
  1  2  2  0  0  0  0
  1  6  1  0  0  0  0
  1  7  1  0  0  0  0
  2  3  1  0  0  0  0
  2 17  1  0  0  0  0
  3  4  2  0  0  0  0
  3 67  1  0  0  0  0
  4  5  1  0  0  0  0
  4 68  1  0  0  0  0
  5  6  2  0  0  0  0
  5 69  1  0  0  0  0
  6 15  1  0  0  0  0
  7  8  2  0  0  0  0
  7 12  1  0  0  0  0
  8  9  1  0  0  0  0
  8 42  1  0  0  0  0
  9 10  2  0  0  0  0
  9 70  1  0  0  0  0
 10 11  1  0  0  0  0
 10 71  1  0  0  0  0
 11 12  2  0  0  0  0
 11 72  1  0  0  0  0
 12 13  1  0  0  0  0
 13 14  1  0  0  0  0
 14 73  1  0  0  0  0
 14 74  1  0  0  0  0
 14 75  1  0  0  0  0
 15 16  1  0  0  0  0
 16 76  1  0  0  0  0
 16 77  1  0  0  0  0
 16 78  1  0  0  0  0
 17 18  1  0  0  0  0
 17 30  1  0  0  0  0
 18 19  2  0  0  0  0
 18 23  1  0  0  0  0
 19 20  1  0  0  0  0
 19 79  1  0  0  0  0
 20 21  2  0  0  0  0
 20 28  1  0  0  0  0
 21 22  1  0  0  0  0
 21 26  1  0  0  0  0
 22 23  2  0  0  0  0
 22 24  1  0  0  0  0
 23 80  1  0  0  0  0
 24 25  1  0  0  0  0
 25 81  1  0  0  0  0
 25 82  1  0  0  0  0
 25 83  1  0  0  0  0
 26 27  1  0  0  0  0
 27 84  1  0  0  0  0
 27 85  1  0  0  0  0
 27 86  1  0  0  0  0
 28 29  1  0  0  0  0
 29 87  1  0  0  0  0
 29 88  1  0  0  0  0
 29 89  1  0  0  0  0
 30 31  2  0  0  0  0
 30 35  1  0  0  0  0
 31 32  1  0  0  0  0
 31 90  1  0  0  0  0
 32 33  2  0  0  0  0
 32 40  1  0  0  0  0
 33 34  1  0  0  0  0
 33 38  1  0  0  0  0
 34 35  2  0  0  0  0
 34 36  1  0  0  0  0
 35 91  1  0  0  0  0
 36 37  1  0  0  0  0
 37 92  1  0  0  0  0
 37 93  1  0  0  0  0
 37 94  1  0  0  0  0
 38 39  1  0  0  0  0
 39 95  1  0  0  0  0
 39 96  1  0  0  0  0
 39 97  1  0  0  0  0
 40 41  1  0  0  0  0
 41 98  1  0  0  0  0
 41 99  1  0  0  0  0
 41100  1  0  0  0  0
 42 43  1  0  0  0  0
 42 55  1  0  0  0  0
 43 44  2  0  0  0  0
 43 48  1  0  0  0  0
 44 45  1  0  0  0  0
 44101  1  0  0  0  0
 45 46  2  0  0  0  0
 45 53  1  0  0  0  0
 46 47  1  0  0  0  0
 46 51  1  0  0  0  0
 47 48  2  0  0  0  0
 47 49  1  0  0  0  0
 48102  1  0  0  0  0
 49 50  1  0  0  0  0
 50103  1  0  0  0  0
 50104  1  0  0  0  0
 50105  1  0  0  0  0
 51 52  1  0  0  0  0
 52106  1  0  0  0  0
 52107  1  0  0  0  0
 52108  1  0  0  0  0
 53 54  1  0  0  0  0
 54109  1  0  0  0  0
 54110  1  0  0  0  0
 54111  1  0  0  0  0
 55 56  2  0  0  0  0
 55 60  1  0  0  0  0
 56 57  1  0  0  0  0
 56112  1  0  0  0  0
 57 58  2  0  0  0  0
 57 65  1  0  0  0  0
 58 59  1  0  0  0  0
 58 63  1  0  0  0  0
 59 60  2  0  0  0  0
 59 61  1  0  0  0  0
 60113  1  0  0  0  0
 61 62  1  0  0  0  0
 62114  1  0  0  0  0
 62115  1  0  0  0  0
 62116  1  0  0  0  0
 63 64  1  0  0  0  0
 64117  1  0  0  0  0
 64118  1  0  0  0  0
 64119  1  0  0  0  0
 65 66  1  0  0  0  0
 66120  1  0  0  0  0
 66121  1  0  0  0  0
 66122  1  0  0  0  0
M  END
$$$$
