Title Card Required
 OpenBabel03192317553D

120124  0  0  1  0  0  0  0  0999 V2000
   -1.2041    5.4669   -1.5830 C   0  0  0  0  0  0  0  0  0  0  0  0
   -0.4950    4.4341   -0.7062 C   0  0  0  0  0  0  0  0  0  0  0  0
    0.0524    5.0765    0.5623 C   0  0  0  0  0  0  0  0  0  0  0  0
   -1.8686    3.2821   -0.2094 S   0  0  1  0  0  0  0  0  0  0  0  0
   -2.3245    2.6784   -1.5032 O   0  0  0  0  0  0  0  0  0  0  0  0
   -1.0071    2.0868    0.7132 N   0  0  0  0  0  0  0  0  0  0  0  0
    0.5491    3.6683   -1.4994 C   0  0  0  0  0  0  0  0  0  0  0  0
   -1.2286    2.2502    2.1485 C   0  0  0  0  0  0  0  0  0  0  0  0
   -0.9818    0.6691    0.3072 C   0  0  1  0  0  0  0  0  0  0  0  0
   -2.3403   -0.0144    0.1379 C   0  0  0  0  0  0  0  0  0  0  0  0
   -2.3750   -1.3632   -0.2080 C   0  0  0  0  0  0  0  0  0  0  0  0
   -3.5680   -2.0781   -0.3772 C   0  0  0  0  0  0  0  0  0  0  0  0
   -4.7753   -1.3760   -0.1478 C   0  0  0  0  0  0  0  0  0  0  0  0
   -4.7817    0.0078    0.1379 C   0  0  0  0  0  0  0  0  0  0  0  0
   -3.5510    0.6427    0.3151 C   0  0  0  0  0  0  0  0  0  0  0  0
   -5.9980   -1.9959   -0.2701 O   0  0  0  0  0  0  0  0  0  0  0  0
   -6.4529   -2.8071    0.7882 C   0  0  0  0  0  0  0  0  0  0  0  0
   -6.0758    0.8443    0.1536 C   0  0  0  0  0  0  0  0  0  0  0  0
   -5.7672    2.3376    0.3426 C   0  0  0  0  0  0  0  0  0  0  0  0
   -6.7860    0.7018   -1.2051 C   0  0  0  0  0  0  0  0  0  0  0  0
   -7.0182    0.4201    1.2900 C   0  0  0  0  0  0  0  0  0  0  0  0
   -3.4872   -3.5506   -0.8363 C   0  0  0  0  0  0  0  0  0  0  0  0
   -3.5212   -4.4926    0.3801 C   0  0  0  0  0  0  0  0  0  0  0  0
   -4.5990   -3.9157   -1.8366 C   0  0  0  0  0  0  0  0  0  0  0  0
   -2.1567   -3.8151   -1.5674 C   0  0  0  0  0  0  0  0  0  0  0  0
   -0.0182    0.3867   -0.8481 C   0  0  0  0  0  0  0  0  0  0  0  0
    1.3334    0.0605   -0.6077 C   0  0  0  0  0  0  0  0  0  0  0  0
    2.1787   -0.1293   -1.7285 C   0  0  0  0  0  0  0  0  0  0  0  0
    1.6912   -0.0358   -3.0325 C   0  0  0  0  0  0  0  0  0  0  0  0
    0.3391    0.2409   -3.2360 C   0  0  0  0  0  0  0  0  0  0  0  0
   -0.5088    0.4500   -2.1605 C   0  0  0  0  0  0  0  0  0  0  0  0
    1.9076   -0.3080    1.1258 P   0  0  0  0  0  0  0  0  0  0  0  0
    2.4319   -2.1053    0.8747 C   0  0  0  0  0  0  0  0  0  0  0  0
    1.2133   -2.9720    0.5261 C   0  0  0  0  0  0  0  0  0  0  0  0
    0.2534   -3.1345    1.7071 C   0  0  0  0  0  0  0  0  0  0  0  0
    0.9768   -3.6831    2.9390 C   0  0  0  0  0  0  0  0  0  0  0  0
    2.1879   -2.8249    3.3084 C   0  0  0  0  0  0  0  0  0  0  0  0
    3.1322   -2.6808    2.1140 C   0  0  0  0  0  0  0  0  0  0  0  0
    3.5855    0.5279    1.3212 C   0  0  0  0  0  0  0  0  0  0  0  0
    3.8948    0.6951    2.8235 C   0  0  0  0  0  0  0  0  0  0  0  0
    3.0061    1.7353    3.5090 C   0  0  0  0  0  0  0  0  0  0  0  0
    3.0521    3.0810    2.7876 C   0  0  0  0  0  0  0  0  0  0  0  0
    2.7245    2.9135    1.3052 C   0  0  0  0  0  0  0  0  0  0  0  0
    3.6546    1.8999    0.6427 C   0  0  0  0  0  0  0  0  0  0  0  0
    3.4803   -0.4108   -1.4609 O   0  0  0  0  0  0  0  0  0  0  0  0
    4.3721   -0.6658   -2.5232 C   0  0  0  0  0  0  0  0  0  0  0  0
    5.7338   -0.9267   -1.9364 C   0  0  0  0  0  0  0  0  0  0  0  0
    6.4221   -2.1119   -2.1969 C   0  0  0  0  0  0  0  0  0  0  0  0
    7.6834   -2.3336   -1.6411 C   0  0  0  0  0  0  0  0  0  0  0  0
    8.2585   -1.3736   -0.8123 C   0  0  0  0  0  0  0  0  0  0  0  0
    7.5729   -0.1868   -0.5441 C   0  0  0  0  0  0  0  0  0  0  0  0
    6.3200    0.0362   -1.1070 C   0  0  0  0  0  0  0  0  0  0  0  0
   -1.9960    5.9927   -1.0265 H   0  0  0  0  0  0  0  0  0  0  0  0
   -1.6544    4.9819   -2.4594 H   0  0  0  0  0  0  0  0  0  0  0  0
   -0.4735    6.2155   -1.9246 H   0  0  0  0  0  0  0  0  0  0  0  0
   -0.7371    5.6191    1.1057 H   0  0  0  0  0  0  0  0  0  0  0  0
    0.5000    4.3307    1.2322 H   0  0  0  0  0  0  0  0  0  0  0  0
    0.8357    5.8024    0.2934 H   0  0  0  0  0  0  0  0  0  0  0  0
    0.0753    3.1705   -2.3572 H   0  0  0  0  0  0  0  0  0  0  0  0
    1.3124    4.3696   -1.8736 H   0  0  0  0  0  0  0  0  0  0  0  0
    1.0426    2.9050   -0.8819 H   0  0  0  0  0  0  0  0  0  0  0  0
   -2.1110    1.6921    2.5117 H   0  0  0  0  0  0  0  0  0  0  0  0
   -0.3378    1.8909    2.6872 H   0  0  0  0  0  0  0  0  0  0  0  0
   -1.3674    3.3118    2.3926 H   0  0  0  0  0  0  0  0  0  0  0  0
   -0.5256    0.1931    1.1883 H   0  0  0  0  0  0  0  0  0  0  0  0
   -1.4224   -1.8622   -0.3810 H   0  0  0  0  0  0  0  0  0  0  0  0
   -3.5506    1.6945    0.5777 H   0  0  0  0  0  0  0  0  0  0  0  0
   -6.3301   -3.8748    0.5474 H   0  0  0  0  0  0  0  0  0  0  0  0
   -5.9206   -2.5829    1.7264 H   0  0  0  0  0  0  0  0  0  0  0  0
   -7.5260   -2.6175    0.9338 H   0  0  0  0  0  0  0  0  0  0  0  0
   -5.0788    2.7079   -0.4320 H   0  0  0  0  0  0  0  0  0  0  0  0
   -6.7052    2.9069    0.2710 H   0  0  0  0  0  0  0  0  0  0  0  0
   -5.3267    2.5456    1.3300 H   0  0  0  0  0  0  0  0  0  0  0  0
   -7.0504   -0.3418   -1.4114 H   0  0  0  0  0  0  0  0  0  0  0  0
   -7.7058    1.3078   -1.2087 H   0  0  0  0  0  0  0  0  0  0  0  0
   -6.1329    1.0664   -2.0119 H   0  0  0  0  0  0  0  0  0  0  0  0
   -7.4403   -0.5755    1.1199 H   0  0  0  0  0  0  0  0  0  0  0  0
   -6.4930    0.4216    2.2575 H   0  0  0  0  0  0  0  0  0  0  0  0
   -7.8585    1.1285    1.3588 H   0  0  0  0  0  0  0  0  0  0  0  0
   -4.4442   -4.3971    0.9623 H   0  0  0  0  0  0  0  0  0  0  0  0
   -3.4323   -5.5393    0.0489 H   0  0  0  0  0  0  0  0  0  0  0  0
   -2.6811   -4.2719    1.0541 H   0  0  0  0  0  0  0  0  0  0  0  0
   -4.6095   -3.2034   -2.6752 H   0  0  0  0  0  0  0  0  0  0  0  0
   -4.4003   -4.9188   -2.2433 H   0  0  0  0  0  0  0  0  0  0  0  0
   -5.5995   -3.9190   -1.3958 H   0  0  0  0  0  0  0  0  0  0  0  0
   -1.9932   -3.0915   -2.3799 H   0  0  0  0  0  0  0  0  0  0  0  0
   -1.2907   -3.7770   -0.8920 H   0  0  0  0  0  0  0  0  0  0  0  0
   -2.1815   -4.8249   -2.0018 H   0  0  0  0  0  0  0  0  0  0  0  0
    2.3460   -0.1905   -3.8883 H   0  0  0  0  0  0  0  0  0  0  0  0
   -0.0487    0.3001   -4.2543 H   0  0  0  0  0  0  0  0  0  0  0  0
   -1.5577    0.6982   -2.3174 H   0  0  0  0  0  0  0  0  0  0  0  0
    3.1409   -2.1146    0.0356 H   0  0  0  0  0  0  0  0  0  0  0  0
    0.6917   -2.5602   -0.3541 H   0  0  0  0  0  0  0  0  0  0  0  0
    1.5804   -3.9703    0.2267 H   0  0  0  0  0  0  0  0  0  0  0  0
   -0.2000   -2.1586    1.9534 H   0  0  0  0  0  0  0  0  0  0  0  0
   -0.5765   -3.8012    1.4260 H   0  0  0  0  0  0  0  0  0  0  0  0
    0.2820   -3.7552    3.7892 H   0  0  0  0  0  0  0  0  0  0  0  0
    1.3211   -4.7103    2.7238 H   0  0  0  0  0  0  0  0  0  0  0  0
    1.8416   -1.8283    3.6327 H   0  0  0  0  0  0  0  0  0  0  0  0
    2.7232   -3.2694    4.1615 H   0  0  0  0  0  0  0  0  0  0  0  0
    3.5119   -3.6825    1.8436 H   0  0  0  0  0  0  0  0  0  0  0  0
    4.0204   -2.0856    2.3739 H   0  0  0  0  0  0  0  0  0  0  0  0
    4.3330   -0.1380    0.8632 H   0  0  0  0  0  0  0  0  0  0  0  0
    3.8081   -0.2660    3.3525 H   0  0  0  0  0  0  0  0  0  0  0  0
    4.9513    1.0058    2.9157 H   0  0  0  0  0  0  0  0  0  0  0  0
    1.9670    1.3653    3.5167 H   0  0  0  0  0  0  0  0  0  0  0  0
    3.3101    1.8497    4.5606 H   0  0  0  0  0  0  0  0  0  0  0  0
    2.3559    3.7937    3.2582 H   0  0  0  0  0  0  0  0  0  0  0  0
    4.0627    3.5155    2.8869 H   0  0  0  0  0  0  0  0  0  0  0  0
    1.6800    2.5667    1.1969 H   0  0  0  0  0  0  0  0  0  0  0  0
    2.7893    3.8804    0.7824 H   0  0  0  0  0  0  0  0  0  0  0  0
    4.6937    2.2706    0.7279 H   0  0  0  0  0  0  0  0  0  0  0  0
    3.4322    1.8146   -0.4309 H   0  0  0  0  0  0  0  0  0  0  0  0
    4.0314   -1.5333   -3.1146 H   0  0  0  0  0  0  0  0  0  0  0  0
    4.4074    0.2104   -3.1960 H   0  0  0  0  0  0  0  0  0  0  0  0
    5.9676   -2.8713   -2.8373 H   0  0  0  0  0  0  0  0  0  0  0  0
    8.2133   -3.2637   -1.8516 H   0  0  0  0  0  0  0  0  0  0  0  0
    9.2417   -1.5476   -0.3724 H   0  0  0  0  0  0  0  0  0  0  0  0
    8.0193    0.5678    0.1055 H   0  0  0  0  0  0  0  0  0  0  0  0
    5.7767    0.9607   -0.8984 H   0  0  0  0  0  0  0  0  0  0  0  0
  1  2  1  0  0  0  0
  1 53  1  0  0  0  0
  1 54  1  0  0  0  0
  1 55  1  0  0  0  0
  2  3  1  0  0  0  0
  2  4  1  0  0  0  0
  2  7  1  0  0  0  0
  3 56  1  0  0  0  0
  3 57  1  0  0  0  0
  3 58  1  0  0  0  0
  4  5  2  6  0  0  0
  4  6  1  0  0  0  0
  6  8  1  0  0  0  0
  6  9  1  0  0  0  0
  7 59  1  0  0  0  0
  7 60  1  0  0  0  0
  7 61  1  0  0  0  0
  8 62  1  0  0  0  0
  8 63  1  0  0  0  0
  8 64  1  0  0  0  0
  9 10  1  0  0  0  0
  9 26  1  0  0  0  0
  9 65  1  1  0  0  0
 10 11  2  0  0  0  0
 10 15  1  0  0  0  0
 11 12  1  0  0  0  0
 11 66  1  0  0  0  0
 12 13  2  0  0  0  0
 12 22  1  0  0  0  0
 13 14  1  0  0  0  0
 13 16  1  0  0  0  0
 14 15  2  0  0  0  0
 14 18  1  0  0  0  0
 15 67  1  0  0  0  0
 16 17  1  0  0  0  0
 17 68  1  0  0  0  0
 17 69  1  0  0  0  0
 17 70  1  0  0  0  0
 18 19  1  0  0  0  0
 18 20  1  0  0  0  0
 18 21  1  0  0  0  0
 19 71  1  0  0  0  0
 19 72  1  0  0  0  0
 19 73  1  0  0  0  0
 20 74  1  0  0  0  0
 20 75  1  0  0  0  0
 20 76  1  0  0  0  0
 21 77  1  0  0  0  0
 21 78  1  0  0  0  0
 21 79  1  0  0  0  0
 22 23  1  0  0  0  0
 22 24  1  0  0  0  0
 22 25  1  0  0  0  0
 23 80  1  0  0  0  0
 23 81  1  0  0  0  0
 23 82  1  0  0  0  0
 24 83  1  0  0  0  0
 24 84  1  0  0  0  0
 24 85  1  0  0  0  0
 25 86  1  0  0  0  0
 25 87  1  0  0  0  0
 25 88  1  0  0  0  0
 26 27  2  0  0  0  0
 26 31  1  0  0  0  0
 27 28  1  0  0  0  0
 27 32  1  0  0  0  0
 28 29  2  0  0  0  0
 28 45  1  0  0  0  0
 29 30  1  0  0  0  0
 29 89  1  0  0  0  0
 30 31  2  0  0  0  0
 30 90  1  0  0  0  0
 31 91  1  0  0  0  0
 32 33  1  0  0  0  0
 32 39  1  0  0  0  0
 33 34  1  0  0  0  0
 33 38  1  0  0  0  0
 33 92  1  0  0  0  0
 34 35  1  0  0  0  0
 34 93  1  0  0  0  0
 34 94  1  0  0  0  0
 35 36  1  0  0  0  0
 35 95  1  0  0  0  0
 35 96  1  0  0  0  0
 36 37  1  0  0  0  0
 36 97  1  0  0  0  0
 36 98  1  0  0  0  0
 37 38  1  0  0  0  0
 37 99  1  0  0  0  0
 37100  1  0  0  0  0
 38101  1  0  0  0  0
 38102  1  0  0  0  0
 39 40  1  0  0  0  0
 39 44  1  0  0  0  0
 39103  1  0  0  0  0
 40 41  1  0  0  0  0
 40104  1  0  0  0  0
 40105  1  0  0  0  0
 41 42  1  0  0  0  0
 41106  1  0  0  0  0
 41107  1  0  0  0  0
 42 43  1  0  0  0  0
 42108  1  0  0  0  0
 42109  1  0  0  0  0
 43 44  1  0  0  0  0
 43110  1  0  0  0  0
 43111  1  0  0  0  0
 44112  1  0  0  0  0
 44113  1  0  0  0  0
 45 46  1  0  0  0  0
 46 47  1  0  0  0  0
 46114  1  0  0  0  0
 46115  1  0  0  0  0
 47 48  2  0  0  0  0
 47 52  1  0  0  0  0
 48 49  1  0  0  0  0
 48116  1  0  0  0  0
 49 50  2  0  0  0  0
 49117  1  0  0  0  0
 50 51  1  0  0  0  0
 50118  1  0  0  0  0
 51 52  2  0  0  0  0
 51119  1  0  0  0  0
 52120  1  0  0  0  0
M  END
$$$$
