Title Card Required
 OpenBabel03192317563D

 84 87  0  0  1  0  0  0  0  0999 V2000
    0.2206    4.9449   -2.0073 C   0  0  0  0  0  0  0  0  0  0  0  0
    0.7330    3.7276   -1.2371 C   0  0  0  0  0  0  0  0  0  0  0  0
    1.6413    4.1283   -0.0842 C   0  0  0  0  0  0  0  0  0  0  0  0
   -0.8279    2.9926   -0.5276 S   0  0  1  0  0  0  0  0  0  0  0  0
   -1.4312    2.2368   -1.6697 O   0  0  0  0  0  0  0  0  0  0  0  0
   -0.2131    1.8194    0.5911 N   0  0  0  0  0  0  0  0  0  0  0  0
    1.3672    2.7095   -2.1669 C   0  0  0  0  0  0  0  0  0  0  0  0
   -0.2937    2.2399    1.9839 C   0  0  0  0  0  0  0  0  0  0  0  0
   -0.4451    0.4078    0.2673 C   0  0  1  0  0  0  0  0  0  0  0  0
    0.2343   -0.4533    1.3481 C   0  0  0  0  0  0  0  0  0  0  0  0
    1.6296   -0.6789    1.3739 C   0  0  0  0  0  0  0  0  0  0  0  0
    2.1861   -1.3111    2.4950 C   0  0  0  0  0  0  0  0  0  0  0  0
    1.4023   -1.7631    3.5530 C   0  0  0  0  0  0  0  0  0  0  0  0
    0.0231   -1.5900    3.4981 C   0  0  0  0  0  0  0  0  0  0  0  0
   -0.5448   -0.9356    2.4081 C   0  0  0  0  0  0  0  0  0  0  0  0
    2.7041   -0.1208   -0.0317 P   0  0  0  0  0  0  0  0  0  0  0  0
    4.2202    0.5407    0.8959 C   0  0  0  0  0  0  0  0  0  0  0  0
    4.7485    1.7691    0.1315 C   0  0  0  0  0  0  0  0  0  0  0  0
    5.5806    1.3707   -1.0854 C   0  0  0  0  0  0  0  0  0  0  0  0
    6.7860    0.5327   -0.6600 C   0  0  0  0  0  0  0  0  0  0  0  0
    6.3642   -0.7010    0.1407 C   0  0  0  0  0  0  0  0  0  0  0  0
    5.4207   -0.3420    1.2930 C   0  0  0  0  0  0  0  0  0  0  0  0
    3.2252   -1.6851   -0.9490 C   0  0  0  0  0  0  0  0  0  0  0  0
    2.2396   -1.9855   -2.0918 C   0  0  0  0  0  0  0  0  0  0  0  0
    1.0181   -2.7633   -1.6112 C   0  0  0  0  0  0  0  0  0  0  0  0
    1.4369   -4.0890   -0.9812 C   0  0  0  0  0  0  0  0  0  0  0  0
    2.3623   -3.8329    0.2062 C   0  0  0  0  0  0  0  0  0  0  0  0
    3.5715   -2.9721   -0.1808 C   0  0  0  0  0  0  0  0  0  0  0  0
   -1.9203    0.0311    0.1056 C   0  0  0  0  0  0  0  0  0  0  0  0
   -2.9644    0.8523    0.5423 C   0  0  0  0  0  0  0  0  0  0  0  0
   -4.2881    0.4507    0.4030 C   0  0  0  0  0  0  0  0  0  0  0  0
   -4.6122   -0.7714   -0.1861 C   0  0  0  0  0  0  0  0  0  0  0  0
   -3.5765   -1.5804   -0.6331 C   0  0  0  0  0  0  0  0  0  0  0  0
   -2.2462   -1.1866   -0.4857 C   0  0  0  0  0  0  0  0  0  0  0  0
   -3.8588   -2.8890   -1.3220 C   0  0  0  0  0  0  0  0  0  0  0  0
   -5.1342   -3.2546   -1.1970 F   0  0  0  0  0  0  0  0  0  0  0  0
   -3.5867   -2.8188   -2.6266 F   0  0  0  0  0  0  0  0  0  0  0  0
   -3.1040   -3.8729   -0.8240 F   0  0  0  0  0  0  0  0  0  0  0  0
   -5.4122    1.3324    0.8793 C   0  0  0  0  0  0  0  0  0  0  0  0
   -4.9641    2.4479    1.4573 F   0  0  0  0  0  0  0  0  0  0  0  0
   -6.2125    1.6922   -0.1250 F   0  0  0  0  0  0  0  0  0  0  0  0
   -6.1764    0.6976    1.7731 F   0  0  0  0  0  0  0  0  0  0  0  0
   -0.2557    5.6777   -1.3383 H   0  0  0  0  0  0  0  0  0  0  0  0
   -0.5094    4.6363   -2.7696 H   0  0  0  0  0  0  0  0  0  0  0  0
    1.0637    5.4385   -2.5135 H   0  0  0  0  0  0  0  0  0  0  0  0
    1.1497    4.8476    0.5905 H   0  0  0  0  0  0  0  0  0  0  0  0
    1.9456    3.2435    0.4939 H   0  0  0  0  0  0  0  0  0  0  0  0
    2.5467    4.6120   -0.4831 H   0  0  0  0  0  0  0  0  0  0  0  0
    0.6434    2.3877   -2.9277 H   0  0  0  0  0  0  0  0  0  0  0  0
    2.2369    3.1649   -2.6680 H   0  0  0  0  0  0  0  0  0  0  0  0
    1.7124    1.8305   -1.6048 H   0  0  0  0  0  0  0  0  0  0  0  0
   -1.1684    1.8315    2.5194 H   0  0  0  0  0  0  0  0  0  0  0  0
    0.6112    1.9365    2.5320 H   0  0  0  0  0  0  0  0  0  0  0  0
   -0.3581    3.3363    2.0188 H   0  0  0  0  0  0  0  0  0  0  0  0
    0.0380    0.2184   -0.7040 H   0  0  0  0  0  0  0  0  0  0  0  0
    3.2639   -1.4709    2.5371 H   0  0  0  0  0  0  0  0  0  0  0  0
    1.8681   -2.2567    4.4072 H   0  0  0  0  0  0  0  0  0  0  0  0
   -0.6149   -1.9482    4.3071 H   0  0  0  0  0  0  0  0  0  0  0  0
   -1.6249   -0.7837    2.3930 H   0  0  0  0  0  0  0  0  0  0  0  0
    3.7523    0.9044    1.8260 H   0  0  0  0  0  0  0  0  0  0  0  0
    3.9130    2.4163   -0.1696 H   0  0  0  0  0  0  0  0  0  0  0  0
    5.3849    2.3590    0.8155 H   0  0  0  0  0  0  0  0  0  0  0  0
    4.9488    0.8006   -1.7914 H   0  0  0  0  0  0  0  0  0  0  0  0
    5.9127    2.2684   -1.6282 H   0  0  0  0  0  0  0  0  0  0  0  0
    7.3840    0.2334   -1.5339 H   0  0  0  0  0  0  0  0  0  0  0  0
    7.4408    1.1602   -0.0304 H   0  0  0  0  0  0  0  0  0  0  0  0
    5.8897   -1.4351   -0.5276 H   0  0  0  0  0  0  0  0  0  0  0  0
    7.2536   -1.2027    0.5516 H   0  0  0  0  0  0  0  0  0  0  0  0
    6.0012    0.2422    2.0299 H   0  0  0  0  0  0  0  0  0  0  0  0
    5.1091   -1.2552    1.8190 H   0  0  0  0  0  0  0  0  0  0  0  0
    4.1450   -1.3138   -1.4260 H   0  0  0  0  0  0  0  0  0  0  0  0
    1.9414   -1.0487   -2.5874 H   0  0  0  0  0  0  0  0  0  0  0  0
    2.7649   -2.5939   -2.8494 H   0  0  0  0  0  0  0  0  0  0  0  0
    0.4999   -2.1637   -0.8440 H   0  0  0  0  0  0  0  0  0  0  0  0
    0.3088   -2.9211   -2.4379 H   0  0  0  0  0  0  0  0  0  0  0  0
    0.5533   -4.6605   -0.6597 H   0  0  0  0  0  0  0  0  0  0  0  0
    1.9555   -4.7021   -1.7395 H   0  0  0  0  0  0  0  0  0  0  0  0
    1.7816   -3.3395    0.9999 H   0  0  0  0  0  0  0  0  0  0  0  0
    2.7214   -4.7843    0.6279 H   0  0  0  0  0  0  0  0  0  0  0  0
    4.2201   -3.5780   -0.8400 H   0  0  0  0  0  0  0  0  0  0  0  0
    4.1750   -2.7475    0.7113 H   0  0  0  0  0  0  0  0  0  0  0  0
   -2.7619    1.8251    0.9913 H   0  0  0  0  0  0  0  0  0  0  0  0
   -5.6517   -1.0828   -0.2959 H   0  0  0  0  0  0  0  0  0  0  0  0
   -1.4567   -1.8486   -0.8448 H   0  0  0  0  0  0  0  0  0  0  0  0
  1  2  1  0  0  0  0
  1 43  1  0  0  0  0
  1 44  1  0  0  0  0
  1 45  1  0  0  0  0
  2  3  1  0  0  0  0
  2  4  1  0  0  0  0
  2  7  1  0  0  0  0
  3 46  1  0  0  0  0
  3 47  1  0  0  0  0
  3 48  1  0  0  0  0
  4  5  2  6  0  0  0
  4  6  1  0  0  0  0
  6  8  1  0  0  0  0
  6  9  1  0  0  0  0
  7 49  1  0  0  0  0
  7 50  1  0  0  0  0
  7 51  1  0  0  0  0
  8 52  1  0  0  0  0
  8 53  1  0  0  0  0
  8 54  1  0  0  0  0
  9 10  1  0  0  0  0
  9 29  1  0  0  0  0
  9 55  1  6  0  0  0
 10 11  2  0  0  0  0
 10 15  1  0  0  0  0
 11 12  1  0  0  0  0
 11 16  1  0  0  0  0
 12 13  2  0  0  0  0
 12 56  1  0  0  0  0
 13 14  1  0  0  0  0
 13 57  1  0  0  0  0
 14 15  2  0  0  0  0
 14 58  1  0  0  0  0
 15 59  1  0  0  0  0
 16 17  1  0  0  0  0
 16 23  1  0  0  0  0
 17 18  1  0  0  0  0
 17 22  1  0  0  0  0
 17 60  1  0  0  0  0
 18 19  1  0  0  0  0
 18 61  1  0  0  0  0
 18 62  1  0  0  0  0
 19 20  1  0  0  0  0
 19 63  1  0  0  0  0
 19 64  1  0  0  0  0
 20 21  1  0  0  0  0
 20 65  1  0  0  0  0
 20 66  1  0  0  0  0
 21 22  1  0  0  0  0
 21 67  1  0  0  0  0
 21 68  1  0  0  0  0
 22 69  1  0  0  0  0
 22 70  1  0  0  0  0
 23 24  1  0  0  0  0
 23 28  1  0  0  0  0
 23 71  1  0  0  0  0
 24 25  1  0  0  0  0
 24 72  1  0  0  0  0
 24 73  1  0  0  0  0
 25 26  1  0  0  0  0
 25 74  1  0  0  0  0
 25 75  1  0  0  0  0
 26 27  1  0  0  0  0
 26 76  1  0  0  0  0
 26 77  1  0  0  0  0
 27 28  1  0  0  0  0
 27 78  1  0  0  0  0
 27 79  1  0  0  0  0
 28 80  1  0  0  0  0
 28 81  1  0  0  0  0
 29 30  2  0  0  0  0
 29 34  1  0  0  0  0
 30 31  1  0  0  0  0
 30 82  1  0  0  0  0
 31 32  2  0  0  0  0
 31 39  1  0  0  0  0
 32 33  1  0  0  0  0
 32 83  1  0  0  0  0
 33 34  2  0  0  0  0
 33 35  1  0  0  0  0
 34 84  1  0  0  0  0
 35 36  1  0  0  0  0
 35 37  1  0  0  0  0
 35 38  1  0  0  0  0
 39 40  1  0  0  0  0
 39 41  1  0  0  0  0
 39 42  1  0  0  0  0
M  END
$$$$
