Title Card Required
 OpenBabel03192317403D

 69 69  0  0  1  0  0  0  0  0999 V2000
    4.8279    2.3251   -0.4300 C   0  0  0  0  0  0  0  0  0  0  0  0
    3.9554    1.3559    0.3653 C   0  0  0  0  0  0  0  0  0  0  0  0
    3.0278    2.0836    1.3265 C   0  0  0  0  0  0  0  0  0  0  0  0
    2.9212    0.5075   -0.9374 S   0  0  1  0  0  0  0  0  0  0  0  0
    3.9424   -0.1852   -1.7892 O   0  0  0  0  0  0  0  0  0  0  0  0
    2.1484   -0.6083    0.0674 N   0  0  0  0  0  0  0  0  0  0  0  0
    4.8099    0.3044    1.0595 C   0  0  0  0  0  0  0  0  0  0  0  0
    0.7960   -1.0670   -0.2617 C   0  0  1  0  0  0  0  0  0  0  0  0
    0.7887   -2.4873   -0.9172 C   0  0  0  0  0  0  0  0  0  0  0  0
    1.4031   -3.5524   -0.0013 C   0  0  0  0  0  0  0  0  0  0  0  0
   -0.6501   -2.9003   -1.2404 C   0  0  0  0  0  0  0  0  0  0  0  0
    1.5890   -2.4156   -2.2224 C   0  0  0  0  0  0  0  0  0  0  0  0
   -0.1000   -0.9459    0.9716 C   0  0  0  0  0  0  0  0  0  0  0  0
   -1.3993   -0.3912    0.9404 C   0  0  0  0  0  0  0  0  0  0  0  0
   -2.1329   -0.3491    2.1384 C   0  0  0  0  0  0  0  0  0  0  0  0
   -1.6237   -0.8344    3.3374 C   0  0  0  0  0  0  0  0  0  0  0  0
   -0.3310   -1.3532    3.3686 C   0  0  0  0  0  0  0  0  0  0  0  0
    0.4160   -1.3933    2.1974 C   0  0  0  0  0  0  0  0  0  0  0  0
   -2.0634    0.3371   -0.6405 P   0  0  0  0  0  0  0  0  0  0  0  0
   -3.9356   -0.0353   -0.6631 C   0  0  0  0  0  0  0  0  0  0  0  0
   -4.8930    0.8106    0.1836 C   0  0  0  0  0  0  0  0  0  0  0  0
   -4.3400    0.1310   -2.1397 C   0  0  0  0  0  0  0  0  0  0  0  0
   -4.1076   -1.5170   -0.3011 C   0  0  0  0  0  0  0  0  0  0  0  0
   -1.7790    2.1888   -0.2999 C   0  0  0  0  0  0  0  0  0  0  0  0
   -0.2598    2.3681   -0.4326 C   0  0  0  0  0  0  0  0  0  0  0  0
   -2.4592    2.9972   -1.4105 C   0  0  0  0  0  0  0  0  0  0  0  0
   -2.2084    2.7077    1.0735 C   0  0  0  0  0  0  0  0  0  0  0  0
    4.2127    3.0453   -0.9915 H   0  0  0  0  0  0  0  0  0  0  0  0
    5.4585    1.7754   -1.1414 H   0  0  0  0  0  0  0  0  0  0  0  0
    5.4716    2.8914    0.2597 H   0  0  0  0  0  0  0  0  0  0  0  0
    2.4367    2.8512    0.8050 H   0  0  0  0  0  0  0  0  0  0  0  0
    2.3391    1.3820    1.8199 H   0  0  0  0  0  0  0  0  0  0  0  0
    3.6277    2.5869    2.1005 H   0  0  0  0  0  0  0  0  0  0  0  0
    2.7928   -1.3419    0.3615 H   0  0  0  0  0  0  0  0  0  0  0  0
    5.3158   -0.3236    0.3110 H   0  0  0  0  0  0  0  0  0  0  0  0
    5.5765    0.8002    1.6744 H   0  0  0  0  0  0  0  0  0  0  0  0
    4.2034   -0.3268    1.7260 H   0  0  0  0  0  0  0  0  0  0  0  0
    0.4077   -0.3824   -1.0297 H   0  0  0  0  0  0  0  0  0  0  0  0
    0.8194   -3.6851    0.9208 H   0  0  0  0  0  0  0  0  0  0  0  0
    1.4200   -4.5170   -0.5301 H   0  0  0  0  0  0  0  0  0  0  0  0
    2.4472   -3.3278    0.2710 H   0  0  0  0  0  0  0  0  0  0  0  0
   -1.1239   -2.1767   -1.9207 H   0  0  0  0  0  0  0  0  0  0  0  0
   -0.6498   -3.8855   -1.7314 H   0  0  0  0  0  0  0  0  0  0  0  0
   -1.2638   -2.9736   -0.3297 H   0  0  0  0  0  0  0  0  0  0  0  0
    1.1640   -1.6547   -2.8968 H   0  0  0  0  0  0  0  0  0  0  0  0
    2.6424   -2.1523   -2.0550 H   0  0  0  0  0  0  0  0  0  0  0  0
    1.5484   -3.3854   -2.7407 H   0  0  0  0  0  0  0  0  0  0  0  0
   -3.1290    0.0909    2.1368 H   0  0  0  0  0  0  0  0  0  0  0  0
   -2.2267   -0.7902    4.2456 H   0  0  0  0  0  0  0  0  0  0  0  0
    0.0973   -1.7189    4.3032 H   0  0  0  0  0  0  0  0  0  0  0  0
    1.4380   -1.7749    2.2317 H   0  0  0  0  0  0  0  0  0  0  0  0
   -4.8647    1.8732   -0.0935 H   0  0  0  0  0  0  0  0  0  0  0  0
   -5.9224    0.4563    0.0073 H   0  0  0  0  0  0  0  0  0  0  0  0
   -4.7100    0.7342    1.2631 H   0  0  0  0  0  0  0  0  0  0  0  0
   -3.7309   -0.5120   -2.7910 H   0  0  0  0  0  0  0  0  0  0  0  0
   -5.3986   -0.1504   -2.2650 H   0  0  0  0  0  0  0  0  0  0  0  0
   -4.2253    1.1679   -2.4859 H   0  0  0  0  0  0  0  0  0  0  0  0
   -3.4395   -2.1540   -0.8997 H   0  0  0  0  0  0  0  0  0  0  0  0
   -3.9051   -1.7145    0.7603 H   0  0  0  0  0  0  0  0  0  0  0  0
   -5.1450   -1.8223   -0.5153 H   0  0  0  0  0  0  0  0  0  0  0  0
    0.0981    2.0902   -1.4355 H   0  0  0  0  0  0  0  0  0  0  0  0
    0.0043    3.4244   -0.2544 H   0  0  0  0  0  0  0  0  0  0  0  0
    0.2840    1.7580    0.3066 H   0  0  0  0  0  0  0  0  0  0  0  0
   -3.5546    2.9904   -1.3196 H   0  0  0  0  0  0  0  0  0  0  0  0
   -2.1297    4.0475   -1.3531 H   0  0  0  0  0  0  0  0  0  0  0  0
   -2.1909    2.6126   -2.4065 H   0  0  0  0  0  0  0  0  0  0  0  0
   -3.2790    2.5601    1.2657 H   0  0  0  0  0  0  0  0  0  0  0  0
   -1.6418    2.2218    1.8802 H   0  0  0  0  0  0  0  0  0  0  0  0
   -2.0064    3.7907    1.1305 H   0  0  0  0  0  0  0  0  0  0  0  0
  1  2  1  0  0  0  0
  1 28  1  0  0  0  0
  1 29  1  0  0  0  0
  1 30  1  0  0  0  0
  2  3  1  0  0  0  0
  2  4  1  0  0  0  0
  2  7  1  0  0  0  0
  3 31  1  0  0  0  0
  3 32  1  0  0  0  0
  3 33  1  0  0  0  0
  4  5  2  6  0  0  0
  4  6  1  0  0  0  0
  6  8  1  0  0  0  0
  6 34  1  0  0  0  0
  7 35  1  0  0  0  0
  7 36  1  0  0  0  0
  7 37  1  0  0  0  0
  8  9  1  0  0  0  0
  8 13  1  0  0  0  0
  8 38  1  6  0  0  0
  9 10  1  0  0  0  0
  9 11  1  0  0  0  0
  9 12  1  0  0  0  0
 10 39  1  0  0  0  0
 10 40  1  0  0  0  0
 10 41  1  0  0  0  0
 11 42  1  0  0  0  0
 11 43  1  0  0  0  0
 11 44  1  0  0  0  0
 12 45  1  0  0  0  0
 12 46  1  0  0  0  0
 12 47  1  0  0  0  0
 13 14  2  0  0  0  0
 13 18  1  0  0  0  0
 14 15  1  0  0  0  0
 14 19  1  0  0  0  0
 15 16  2  0  0  0  0
 15 48  1  0  0  0  0
 16 17  1  0  0  0  0
 16 49  1  0  0  0  0
 17 18  2  0  0  0  0
 17 50  1  0  0  0  0
 18 51  1  0  0  0  0
 19 20  1  0  0  0  0
 19 24  1  0  0  0  0
 20 21  1  0  0  0  0
 20 22  1  0  0  0  0
 20 23  1  0  0  0  0
 21 52  1  0  0  0  0
 21 53  1  0  0  0  0
 21 54  1  0  0  0  0
 22 55  1  0  0  0  0
 22 56  1  0  0  0  0
 22 57  1  0  0  0  0
 23 58  1  0  0  0  0
 23 59  1  0  0  0  0
 23 60  1  0  0  0  0
 24 25  1  0  0  0  0
 24 26  1  0  0  0  0
 24 27  1  0  0  0  0
 25 61  1  0  0  0  0
 25 62  1  0  0  0  0
 25 63  1  0  0  0  0
 26 64  1  0  0  0  0
 26 65  1  0  0  0  0
 26 66  1  0  0  0  0
 27 67  1  0  0  0  0
 27 68  1  0  0  0  0
 27 69  1  0  0  0  0
M  END
$$$$
