Title Card Required
 OpenBabel03192317503D

 72 77  0  0  1  0  0  0  0  0999 V2000
   -1.1764    5.5639    0.9481 C   0  0  0  0  0  0  0  0  0  0  0  0
   -0.5355    4.2868    0.4091 C   0  0  0  0  0  0  0  0  0  0  0  0
    0.5876    3.7887    1.3045 C   0  0  0  0  0  0  0  0  0  0  0  0
   -1.9065    3.0297    0.4766 S   0  0  1  0  0  0  0  0  0  0  0  0
   -2.9600    3.6109   -0.4255 O   0  0  0  0  0  0  0  0  0  0  0  0
   -1.1470    1.7534   -0.3685 N   0  0  0  0  0  0  0  0  0  0  0  0
   -0.1068    4.4586   -1.0399 C   0  0  0  0  0  0  0  0  0  0  0  0
   -1.3562    0.3830    0.1086 C   0  0  1  0  0  0  0  0  0  0  0  0
   -2.7977   -0.0952    0.2327 C   0  0  0  0  0  0  0  0  0  0  0  0
   -3.8470    0.5721   -0.3577 C   0  0  0  0  0  0  0  0  0  0  0  0
   -5.1759    0.0846   -0.2572 C   0  0  0  0  0  0  0  0  0  0  0  0
   -5.4427   -1.0684    0.4311 C   0  0  0  0  0  0  0  0  0  0  0  0
   -4.3899   -1.7889    1.0614 C   0  0  0  0  0  0  0  0  0  0  0  0
   -4.6508   -2.9826    1.7865 C   0  0  0  0  0  0  0  0  0  0  0  0
   -3.6348   -3.6759    2.3967 C   0  0  0  0  0  0  0  0  0  0  0  0
   -2.3063   -3.1987    2.3069 C   0  0  0  0  0  0  0  0  0  0  0  0
   -2.0223   -2.0471    1.6114 C   0  0  0  0  0  0  0  0  0  0  0  0
   -3.0523   -1.3041    0.9663 C   0  0  0  0  0  0  0  0  0  0  0  0
    1.3674   -2.8893   -3.5877 O   0  0  0  0  0  0  0  0  0  0  0  0
    0.2543   -3.1937   -4.4107 C   0  0  0  0  0  0  0  0  0  0  0  0
   -0.8057   -2.3328   -4.0253 O   0  0  0  0  0  0  0  0  0  0  0  0
   -0.4379   -1.7846   -2.8392 C   0  0  0  0  0  0  0  0  0  0  0  0
    0.8886   -2.1235   -2.5695 C   0  0  0  0  0  0  0  0  0  0  0  0
    1.5266   -1.6827   -1.4344 C   0  0  0  0  0  0  0  0  0  0  0  0
    0.7972   -0.8637   -0.5412 C   0  0  0  0  0  0  0  0  0  0  0  0
   -0.5432   -0.5358   -0.8064 C   0  0  0  0  0  0  0  0  0  0  0  0
   -1.1745   -1.0023   -1.9803 C   0  0  0  0  0  0  0  0  0  0  0  0
    1.6182   -0.2031    0.9779 P   0  0  0  0  0  0  0  0  0  0  0  0
    2.8259   -1.5487    1.3459 C   0  0  0  0  0  0  0  0  0  0  0  0
    4.1454   -1.5872    0.8779 C   0  0  0  0  0  0  0  0  0  0  0  0
    4.9804   -2.6553    1.2082 C   0  0  0  0  0  0  0  0  0  0  0  0
    4.5078   -3.6969    2.0049 C   0  0  0  0  0  0  0  0  0  0  0  0
    3.1964   -3.6657    2.4788 C   0  0  0  0  0  0  0  0  0  0  0  0
    2.3661   -2.5940    2.1583 C   0  0  0  0  0  0  0  0  0  0  0  0
    2.7045    1.1048    0.2735 C   0  0  0  0  0  0  0  0  0  0  0  0
    2.5618    1.6067   -1.0240 C   0  0  0  0  0  0  0  0  0  0  0  0
    3.3265    2.6969   -1.4463 C   0  0  0  0  0  0  0  0  0  0  0  0
    4.2450    3.2898   -0.5834 C   0  0  0  0  0  0  0  0  0  0  0  0
    4.3975    2.7908    0.7122 C   0  0  0  0  0  0  0  0  0  0  0  0
    3.6253    1.7148    1.1393 C   0  0  0  0  0  0  0  0  0  0  0  0
   -1.5507    5.4221    1.9740 H   0  0  0  0  0  0  0  0  0  0  0  0
   -2.0148    5.8726    0.3094 H   0  0  0  0  0  0  0  0  0  0  0  0
   -0.4234    6.3659    0.9694 H   0  0  0  0  0  0  0  0  0  0  0  0
    0.2571    3.7032    2.3510 H   0  0  0  0  0  0  0  0  0  0  0  0
    0.9515    2.8100    0.9660 H   0  0  0  0  0  0  0  0  0  0  0  0
    1.4334    4.4933    1.2661 H   0  0  0  0  0  0  0  0  0  0  0  0
   -1.2943    1.8740   -1.3730 H   0  0  0  0  0  0  0  0  0  0  0  0
   -0.9872    4.6493   -1.6720 H   0  0  0  0  0  0  0  0  0  0  0  0
    0.5761    5.3185   -1.1201 H   0  0  0  0  0  0  0  0  0  0  0  0
    0.4274    3.5681   -1.4002 H   0  0  0  0  0  0  0  0  0  0  0  0
   -0.9095    0.3444    1.1132 H   0  0  0  0  0  0  0  0  0  0  0  0
   -3.6777    1.5116   -0.8855 H   0  0  0  0  0  0  0  0  0  0  0  0
   -5.9822    0.6439   -0.7335 H   0  0  0  0  0  0  0  0  0  0  0  0
   -6.4625   -1.4496    0.5136 H   0  0  0  0  0  0  0  0  0  0  0  0
   -5.6814   -3.3385    1.8493 H   0  0  0  0  0  0  0  0  0  0  0  0
   -3.8483   -4.5912    2.9505 H   0  0  0  0  0  0  0  0  0  0  0  0
   -1.4999   -3.7500    2.7937 H   0  0  0  0  0  0  0  0  0  0  0  0
   -0.9879   -1.7068    1.5528 H   0  0  0  0  0  0  0  0  0  0  0  0
    0.5106   -3.0146   -5.4633 H   0  0  0  0  0  0  0  0  0  0  0  0
   -0.0479   -4.2442   -4.2538 H   0  0  0  0  0  0  0  0  0  0  0  0
    2.5634   -1.9574   -1.2392 H   0  0  0  0  0  0  0  0  0  0  0  0
   -2.2182   -0.7688   -2.1926 H   0  0  0  0  0  0  0  0  0  0  0  0
    4.5250   -0.7784    0.2497 H   0  0  0  0  0  0  0  0  0  0  0  0
    6.0065   -2.6734    0.8370 H   0  0  0  0  0  0  0  0  0  0  0  0
    5.1628   -4.5306    2.2625 H   0  0  0  0  0  0  0  0  0  0  0  0
    2.8226   -4.4728    3.1108 H   0  0  0  0  0  0  0  0  0  0  0  0
    1.3455   -2.5621    2.5497 H   0  0  0  0  0  0  0  0  0  0  0  0
    1.8377    1.1566   -1.7062 H   0  0  0  0  0  0  0  0  0  0  0  0
    3.2003    3.0837   -2.4591 H   0  0  0  0  0  0  0  0  0  0  0  0
    4.8421    4.1402   -0.9164 H   0  0  0  0  0  0  0  0  0  0  0  0
    5.1140    3.2487    1.3962 H   0  0  0  0  0  0  0  0  0  0  0  0
    3.7355    1.3418    2.1614 H   0  0  0  0  0  0  0  0  0  0  0  0
  1  2  1  0  0  0  0
  1 41  1  0  0  0  0
  1 42  1  0  0  0  0
  1 43  1  0  0  0  0
  2  3  1  0  0  0  0
  2  4  1  0  0  0  0
  2  7  1  0  0  0  0
  3 44  1  0  0  0  0
  3 45  1  0  0  0  0
  3 46  1  0  0  0  0
  4  5  2  6  0  0  0
  4  6  1  0  0  0  0
  6  8  1  0  0  0  0
  6 47  1  0  0  0  0
  7 48  1  0  0  0  0
  7 49  1  0  0  0  0
  7 50  1  0  0  0  0
  8  9  1  0  0  0  0
  8 26  1  0  0  0  0
  8 51  1  1  0  0  0
  9 10  2  0  0  0  0
  9 18  1  0  0  0  0
 10 11  1  0  0  0  0
 10 52  1  0  0  0  0
 11 12  2  0  0  0  0
 11 53  1  0  0  0  0
 12 13  1  0  0  0  0
 12 54  1  0  0  0  0
 13 14  2  0  0  0  0
 13 18  1  0  0  0  0
 14 15  1  0  0  0  0
 14 55  1  0  0  0  0
 15 16  2  0  0  0  0
 15 56  1  0  0  0  0
 16 17  1  0  0  0  0
 16 57  1  0  0  0  0
 17 18  2  0  0  0  0
 17 58  1  0  0  0  0
 19 20  1  0  0  0  0
 19 23  1  0  0  0  0
 20 21  1  0  0  0  0
 20 59  1  0  0  0  0
 20 60  1  0  0  0  0
 21 22  1  0  0  0  0
 22 23  2  0  0  0  0
 22 27  1  0  0  0  0
 23 24  1  0  0  0  0
 24 25  2  0  0  0  0
 24 61  1  0  0  0  0
 25 26  1  0  0  0  0
 25 28  1  0  0  0  0
 26 27  2  0  0  0  0
 27 62  1  0  0  0  0
 28 29  1  0  0  0  0
 28 35  1  0  0  0  0
 29 30  2  0  0  0  0
 29 34  1  0  0  0  0
 30 31  1  0  0  0  0
 30 63  1  0  0  0  0
 31 32  2  0  0  0  0
 31 64  1  0  0  0  0
 32 33  1  0  0  0  0
 32 65  1  0  0  0  0
 33 34  2  0  0  0  0
 33 66  1  0  0  0  0
 34 67  1  0  0  0  0
 35 36  2  0  0  0  0
 35 40  1  0  0  0  0
 36 37  1  0  0  0  0
 36 68  1  0  0  0  0
 37 38  2  0  0  0  0
 37 69  1  0  0  0  0
 38 39  1  0  0  0  0
 38 70  1  0  0  0  0
 39 40  2  0  0  0  0
 39 71  1  0  0  0  0
 40 72  1  0  0  0  0
M  END
$$$$
