Title Card Required
 OpenBabel03192317443D

 70 76  0  0  1  0  0  0  0  0999 V2000
    0.2006   -0.5060    1.8142 C   0  0  0  0  0  0  0  0  0  0  0  0
   -1.3063   -0.7974    1.8444 C   0  0  0  0  0  0  0  0  0  0  0  0
   -1.2927   -0.6992    0.3660 C   0  0  0  0  0  0  0  0  0  0  0  0
    0.0842   -0.5054    0.3206 C   0  0  0  0  0  0  0  0  0  0  0  0
    1.0701   -0.3767    2.6218 O   0  0  0  0  0  0  0  0  0  0  0  0
   -2.1335   -1.0321    2.6890 O   0  0  0  0  0  0  0  0  0  0  0  0
    0.9440   -0.3925   -0.7095 N   0  0  0  0  0  0  0  0  0  0  0  0
    2.1739    0.4176   -0.6885 C   0  0  2  0  0  0  0  0  0  0  0  0
    3.7400   -1.0568    0.6929 N   0  0  2  0  0  0  0  0  0  0  0  0
    3.4811   -0.3886   -0.5830 C   0  0  1  0  0  0  0  0  0  0  0  0
    3.6458   -1.3921   -1.7521 C   0  0  0  0  0  0  0  0  0  0  0  0
    4.4120   -2.6131   -1.2213 C   0  0  1  0  0  0  0  0  0  0  0  0
    5.6749   -2.1632   -0.4496 C   0  0  2  0  0  0  0  0  0  0  0  0
    5.1726   -1.3279    0.7758 C   0  0  0  0  0  0  0  0  0  0  0  0
    3.4991   -3.3510   -0.2347 C   0  0  0  0  0  0  0  0  0  0  0  0
    3.0167   -2.3229    0.8240 C   0  0  0  0  0  0  0  0  0  0  0  0
    6.6455   -1.4039   -1.3080 C   0  0  0  0  0  0  0  0  0  0  0  0
    7.8531   -1.8419   -1.6618 C   0  0  0  0  0  0  0  0  0  0  0  0
    1.6590    3.7485    2.0657 N   0  0  0  0  0  0  0  0  0  0  0  0
    2.6046    2.8665    2.2346 C   0  0  0  0  0  0  0  0  0  0  0  0
    2.8225    1.7578    1.3711 C   0  0  0  0  0  0  0  0  0  0  0  0
    2.0217    1.5856    0.2720 C   0  0  0  0  0  0  0  0  0  0  0  0
    0.9801    2.5482    0.0405 C   0  0  0  0  0  0  0  0  0  0  0  0
    0.0861    2.4975   -1.0549 C   0  0  0  0  0  0  0  0  0  0  0  0
   -0.9310    3.4224   -1.1964 C   0  0  0  0  0  0  0  0  0  0  0  0
   -1.0793    4.4652   -0.2434 C   0  0  0  0  0  0  0  0  0  0  0  0
   -0.2043    4.5466    0.8128 C   0  0  0  0  0  0  0  0  0  0  0  0
    0.8394    3.6026    0.9897 C   0  0  0  0  0  0  0  0  0  0  0  0
   -1.7421    3.2679   -2.2648 O   0  0  0  0  0  0  0  0  0  0  0  0
   -2.8331    4.1402   -2.4237 C   0  0  0  0  0  0  0  0  0  0  0  0
   -2.2221   -0.7941   -0.6136 N   0  0  0  0  0  0  0  0  0  0  0  0
   -3.5649   -1.1111   -0.4684 C   0  0  0  0  0  0  0  0  0  0  0  0
   -4.1310   -1.3859    0.7405 N   0  0  0  0  0  0  0  0  0  0  0  0
   -5.4620   -1.6568    0.4738 C   0  0  0  0  0  0  0  0  0  0  0  0
   -5.5903   -1.5191   -0.9285 C   0  0  0  0  0  0  0  0  0  0  0  0
   -4.3732   -1.1736   -1.4856 N   0  0  0  0  0  0  0  0  0  0  0  0
   -6.8320   -1.7350   -1.5375 C   0  0  0  0  0  0  0  0  0  0  0  0
   -7.9061   -2.0793   -0.7262 C   0  0  0  0  0  0  0  0  0  0  0  0
   -7.7613   -2.2097    0.6674 C   0  0  0  0  0  0  0  0  0  0  0  0
   -6.5366   -2.0011    1.2935 C   0  0  0  0  0  0  0  0  0  0  0  0
    4.7062   -3.2713   -2.0511 H   0  0  0  0  0  0  0  0  0  0  0  0
    0.5591   -0.5783   -1.6277 H   0  0  0  0  0  0  0  0  0  0  0  0
    2.2240    0.8617   -1.6988 H   0  0  0  0  0  0  0  0  0  0  0  0
    4.2662    0.3806   -0.6744 H   0  0  0  0  0  0  0  0  0  0  0  0
    2.6617   -1.7319   -2.1158 H   0  0  0  0  0  0  0  0  0  0  0  0
    4.1617   -0.9236   -2.6035 H   0  0  0  0  0  0  0  0  0  0  0  0
    6.1837   -3.0717   -0.0905 H   0  0  0  0  0  0  0  0  0  0  0  0
    5.3633   -1.8665    1.7150 H   0  0  0  0  0  0  0  0  0  0  0  0
    5.7156   -0.3709    0.8373 H   0  0  0  0  0  0  0  0  0  0  0  0
    4.0514   -4.1796    0.2344 H   0  0  0  0  0  0  0  0  0  0  0  0
    2.6457   -3.7953   -0.7690 H   0  0  0  0  0  0  0  0  0  0  0  0
    3.1703   -2.6885    1.8489 H   0  0  0  0  0  0  0  0  0  0  0  0
    1.9445   -2.1323    0.7241 H   0  0  0  0  0  0  0  0  0  0  0  0
    6.3245   -0.4124   -1.6533 H   0  0  0  0  0  0  0  0  0  0  0  0
    8.5176   -1.2436   -2.2878 H   0  0  0  0  0  0  0  0  0  0  0  0
    8.2186   -2.8183   -1.3308 H   0  0  0  0  0  0  0  0  0  0  0  0
    3.2509    2.9916    3.1094 H   0  0  0  0  0  0  0  0  0  0  0  0
    3.5782    1.0150    1.6196 H   0  0  0  0  0  0  0  0  0  0  0  0
    0.1580    1.7245   -1.8187 H   0  0  0  0  0  0  0  0  0  0  0  0
   -1.8744    5.2024   -0.3432 H   0  0  0  0  0  0  0  0  0  0  0  0
   -0.2875    5.3387    1.5574 H   0  0  0  0  0  0  0  0  0  0  0  0
   -3.5181    4.0906   -1.5619 H   0  0  0  0  0  0  0  0  0  0  0  0
   -2.5014    5.1819   -2.5634 H   0  0  0  0  0  0  0  0  0  0  0  0
   -3.3665    3.8118   -3.3222 H   0  0  0  0  0  0  0  0  0  0  0  0
   -1.9803   -0.5419   -1.5665 H   0  0  0  0  0  0  0  0  0  0  0  0
   -3.6569   -1.3493    1.6487 H   0  0  0  0  0  0  0  0  0  0  0  0
   -6.9359   -1.6327   -2.6178 H   0  0  0  0  0  0  0  0  0  0  0  0
   -8.8847   -2.2525   -1.1763 H   0  0  0  0  0  0  0  0  0  0  0  0
   -8.6285   -2.4814    1.2709 H   0  0  0  0  0  0  0  0  0  0  0  0
   -6.4229   -2.1029    2.3730 H   0  0  0  0  0  0  0  0  0  0  0  0
  1  2  1  0  0  0  0
  1  4  1  0  0  0  0
  1  5  2  0  0  0  0
  2  3  1  0  0  0  0
  2  6  2  0  0  0  0
  3  4  2  0  0  0  0
  3 31  1  0  0  0  0
  4  7  1  0  0  0  0
  7  8  1  0  0  0  0
  7 42  1  0  0  0  0
  8 10  1  0  0  0  0
  8 22  1  0  0  0  0
  8 43  1  6  0  0  0
  9 10  1  0  0  0  0
  9 14  1  6  0  0  0
  9 16  1  0  0  0  0
 10 11  1  0  0  0  0
 10 44  1  6  0  0  0
 11 12  1  0  0  0  0
 11 45  1  0  0  0  0
 11 46  1  0  0  0  0
 12 13  1  0  0  0  0
 12 15  1  0  0  0  0
 12 41  1  6  0  0  0
 13 14  1  0  0  0  0
 13 17  1  0  0  0  0
 13 47  1  1  0  0  0
 14 48  1  0  0  0  0
 14 49  1  0  0  0  0
 15 16  1  0  0  0  0
 15 50  1  0  0  0  0
 15 51  1  0  0  0  0
 16 52  1  0  0  0  0
 16 53  1  0  0  0  0
 17 18  2  0  0  0  0
 17 54  1  0  0  0  0
 18 55  1  0  0  0  0
 18 56  1  0  0  0  0
 19 20  2  0  0  0  0
 19 28  1  0  0  0  0
 20 21  1  0  0  0  0
 20 57  1  0  0  0  0
 21 22  2  0  0  0  0
 21 58  1  0  0  0  0
 22 23  1  0  0  0  0
 23 24  2  0  0  0  0
 23 28  1  0  0  0  0
 24 25  1  0  0  0  0
 24 59  1  0  0  0  0
 25 26  2  0  0  0  0
 25 29  1  0  0  0  0
 26 27  1  0  0  0  0
 26 60  1  0  0  0  0
 27 28  2  0  0  0  0
 27 61  1  0  0  0  0
 29 30  1  0  0  0  0
 30 62  1  0  0  0  0
 30 63  1  0  0  0  0
 30 64  1  0  0  0  0
 31 32  1  0  0  0  0
 31 65  1  0  0  0  0
 32 33  1  0  0  0  0
 32 36  2  0  0  0  0
 33 34  1  0  0  0  0
 33 66  1  0  0  0  0
 34 35  2  0  0  0  0
 34 40  1  0  0  0  0
 35 36  1  0  0  0  0
 35 37  1  0  0  0  0
 37 38  2  0  0  0  0
 37 67  1  0  0  0  0
 38 39  1  0  0  0  0
 38 68  1  0  0  0  0
 39 40  2  0  0  0  0
 39 69  1  0  0  0  0
 40 70  1  0  0  0  0
M  END
$$$$
