Title Card Required
 OpenBabel03192317423D

 41 43  0  0  1  0  0  0  0  0999 V2000
   -3.7186   -1.0963    2.3389 C   0  0  0  0  0  0  0  0  0  0  0  0
   -2.6163   -0.5198    1.6879 O   0  0  0  0  0  0  0  0  0  0  0  0
   -2.1462   -1.1080    0.5669 C   0  0  0  0  0  0  0  0  0  0  0  0
   -1.0234   -0.5117   -0.0205 C   0  0  0  0  0  0  0  0  0  0  0  0
   -0.0883    0.9561    0.5384 P   0  0  1  0  0  0  0  0  0  0  0  0
    1.1862    0.4883   -0.7988 C   0  0  2  0  0  0  0  0  0  0  0  0
    0.6143   -0.4593   -1.6896 O   0  0  0  0  0  0  0  0  0  0  0  0
   -0.4808   -1.0688   -1.1779 C   0  0  0  0  0  0  0  0  0  0  0  0
   -1.0352   -2.1932   -1.7922 C   0  0  0  0  0  0  0  0  0  0  0  0
   -2.1569   -2.7606   -1.1970 C   0  0  0  0  0  0  0  0  0  0  0  0
   -2.7194   -2.2399   -0.0273 C   0  0  0  0  0  0  0  0  0  0  0  0
    2.4421   -0.0547   -0.1589 C   0  0  0  0  0  0  0  0  0  0  0  0
    3.1580    0.8446    0.5163 N   0  0  0  0  0  0  0  0  0  0  0  0
    4.2655    0.4394    1.1263 C   0  0  0  0  0  0  0  0  0  0  0  0
    4.7175   -0.8814    1.0972 C   0  0  0  0  0  0  0  0  0  0  0  0
    3.9695   -1.8144    0.3852 C   0  0  0  0  0  0  0  0  0  0  0  0
    2.8081   -1.3987   -0.2620 C   0  0  0  0  0  0  0  0  0  0  0  0
   -1.0219    2.3483   -0.3512 C   0  0  0  0  0  0  0  0  0  0  0  0
   -2.3272    2.5596    0.4235 C   0  0  0  0  0  0  0  0  0  0  0  0
   -0.1406    3.5958   -0.2294 C   0  0  0  0  0  0  0  0  0  0  0  0
   -1.3377    2.0576   -1.8176 C   0  0  0  0  0  0  0  0  0  0  0  0
   -3.9115   -0.4866    3.2282 H   0  0  0  0  0  0  0  0  0  0  0  0
   -3.5043   -2.1321    2.6491 H   0  0  0  0  0  0  0  0  0  0  0  0
   -4.6146   -1.0921    1.6963 H   0  0  0  0  0  0  0  0  0  0  0  0
    1.4583    1.3876   -1.3705 H   0  0  0  0  0  0  0  0  0  0  0  0
   -0.5905   -2.5971   -2.7006 H   0  0  0  0  0  0  0  0  0  0  0  0
   -2.6127   -3.6419   -1.6513 H   0  0  0  0  0  0  0  0  0  0  0  0
   -3.5940   -2.7203    0.4064 H   0  0  0  0  0  0  0  0  0  0  0  0
    4.8296    1.2038    1.6698 H   0  0  0  0  0  0  0  0  0  0  0  0
    5.6320   -1.1626    1.6196 H   0  0  0  0  0  0  0  0  0  0  0  0
    4.2869   -2.8573    0.3312 H   0  0  0  0  0  0  0  0  0  0  0  0
    2.1951   -2.0881   -0.8414 H   0  0  0  0  0  0  0  0  0  0  0  0
   -2.1357    2.7636    1.4880 H   0  0  0  0  0  0  0  0  0  0  0  0
   -2.8736    3.4188    0.0011 H   0  0  0  0  0  0  0  0  0  0  0  0
   -2.9760    1.6735    0.3614 H   0  0  0  0  0  0  0  0  0  0  0  0
    0.8262    3.4692   -0.7414 H   0  0  0  0  0  0  0  0  0  0  0  0
   -0.6508    4.4596   -0.6855 H   0  0  0  0  0  0  0  0  0  0  0  0
    0.0678    3.8359    0.8240 H   0  0  0  0  0  0  0  0  0  0  0  0
   -0.4297    1.8949   -2.4168 H   0  0  0  0  0  0  0  0  0  0  0  0
   -1.9776    1.1684   -1.9204 H   0  0  0  0  0  0  0  0  0  0  0  0
   -1.8778    2.9141   -2.2544 H   0  0  0  0  0  0  0  0  0  0  0  0
  1  2  1  0  0  0  0
  1 22  1  0  0  0  0
  1 23  1  0  0  0  0
  1 24  1  0  0  0  0
  2  3  1  0  0  0  0
  3  4  2  0  0  0  0
  3 11  1  0  0  0  0
  4  5  1  0  0  0  0
  4  8  1  0  0  0  0
  5  6  1  0  0  0  0
  5 18  1  6  0  0  0
  6  7  1  0  0  0  0
  6 12  1  0  0  0  0
  6 25  1  6  0  0  0
  7  8  1  0  0  0  0
  8  9  2  0  0  0  0
  9 10  1  0  0  0  0
  9 26  1  0  0  0  0
 10 11  2  0  0  0  0
 10 27  1  0  0  0  0
 11 28  1  0  0  0  0
 12 13  2  0  0  0  0
 12 17  1  0  0  0  0
 13 14  1  0  0  0  0
 14 15  2  0  0  0  0
 14 29  1  0  0  0  0
 15 16  1  0  0  0  0
 15 30  1  0  0  0  0
 16 17  2  0  0  0  0
 16 31  1  0  0  0  0
 17 32  1  0  0  0  0
 18 19  1  0  0  0  0
 18 20  1  0  0  0  0
 18 21  1  0  0  0  0
 19 33  1  0  0  0  0
 19 34  1  0  0  0  0
 19 35  1  0  0  0  0
 20 36  1  0  0  0  0
 20 37  1  0  0  0  0
 20 38  1  0  0  0  0
 21 39  1  0  0  0  0
 21 40  1  0  0  0  0
 21 41  1  0  0  0  0
M  END
$$$$
