Title Card Required
 OpenBabel03192317413D

117121  0  0  1  0  0  0  0  0999 V2000
    1.5253    5.7320    0.5353 C   0  0  0  0  0  0  0  0  0  0  0  0
    0.7359    4.4414    0.3239 C   0  0  0  0  0  0  0  0  0  0  0  0
    0.3058    4.2623   -1.1262 C   0  0  0  0  0  0  0  0  0  0  0  0
    1.9672    3.1058    0.7417 S   0  0  1  0  0  0  0  0  0  0  0  0
    2.1161    3.1626    2.2281 O   0  0  0  0  0  0  0  0  0  0  0  0
    0.9702    1.7219    0.4414 N   0  0  0  0  0  0  0  0  0  0  0  0
   -0.4282    4.3305    1.2907 C   0  0  0  0  0  0  0  0  0  0  0  0
    1.3254    1.0031   -0.7891 C   0  0  1  0  0  0  0  0  0  0  0  0
    2.5741    0.1485   -0.6341 C   0  0  0  0  0  0  0  0  0  0  0  0
    2.5843   -1.0762    0.0208 C   0  0  0  0  0  0  0  0  0  0  0  0
    3.7805   -1.7536    0.3113 C   0  0  0  0  0  0  0  0  0  0  0  0
    4.9857   -1.1074   -0.0246 C   0  0  0  0  0  0  0  0  0  0  0  0
    5.0125    0.0665   -0.8145 C   0  0  0  0  0  0  0  0  0  0  0  0
    3.7878    0.6731   -1.0899 C   0  0  0  0  0  0  0  0  0  0  0  0
    6.1830   -1.6085    0.4245 O   0  0  0  0  0  0  0  0  0  0  0  0
    6.4473   -1.2776    1.7729 C   0  0  0  0  0  0  0  0  0  0  0  0
    6.3215    0.6136   -1.4141 C   0  0  0  0  0  0  0  0  0  0  0  0
    7.3348    1.0430   -0.3393 C   0  0  0  0  0  0  0  0  0  0  0  0
    6.9492   -0.4807   -2.2953 C   0  0  0  0  0  0  0  0  0  0  0  0
    6.0546    1.8378   -2.2990 C   0  0  0  0  0  0  0  0  0  0  0  0
    3.6542   -3.1580    0.9409 C   0  0  0  0  0  0  0  0  0  0  0  0
    4.9486   -3.9814    1.0391 C   0  0  0  0  0  0  0  0  0  0  0  0
    3.0270   -3.0357    2.3397 C   0  0  0  0  0  0  0  0  0  0  0  0
    2.7155   -3.9778    0.0347 C   0  0  0  0  0  0  0  0  0  0  0  0
    0.1023    0.4080   -1.4999 C   0  0  0  0  0  0  0  0  0  0  0  0
   -1.1257    0.0872   -0.8687 C   0  0  0  0  0  0  0  0  0  0  0  0
   -2.2572   -0.0308   -1.7027 C   0  0  0  0  0  0  0  0  0  0  0  0
   -2.1338   -0.1012   -3.0941 C   0  0  0  0  0  0  0  0  0  0  0  0
   -0.8892    0.0592   -3.6884 C   0  0  0  0  0  0  0  0  0  0  0  0
    0.2088    0.3662   -2.8940 C   0  0  0  0  0  0  0  0  0  0  0  0
   -1.0643   -0.4217    0.9257 P   0  0  0  0  0  0  0  0  0  0  0  0
   -1.9339    0.8959    1.9549 C   0  0  0  0  0  0  0  0  0  0  0  0
   -2.2390    0.4068    3.3838 C   0  0  0  0  0  0  0  0  0  0  0  0
   -3.6372   -0.1919    3.5597 C   0  0  0  0  0  0  0  0  0  0  0  0
   -4.7132    0.7681    3.0574 C   0  0  0  0  0  0  0  0  0  0  0  0
   -4.4706    1.1023    1.5881 C   0  0  0  0  0  0  0  0  0  0  0  0
   -3.0916    1.7245    1.3884 C   0  0  0  0  0  0  0  0  0  0  0  0
   -1.9170   -2.0881    1.1803 C   0  0  0  0  0  0  0  0  0  0  0  0
   -0.8915   -3.2215    0.9729 C   0  0  0  0  0  0  0  0  0  0  0  0
   -0.8258   -3.7142   -0.4705 C   0  0  0  0  0  0  0  0  0  0  0  0
   -2.1883   -4.2467   -0.8997 C   0  0  0  0  0  0  0  0  0  0  0  0
   -3.2477   -3.1582   -0.7706 C   0  0  0  0  0  0  0  0  0  0  0  0
   -3.2862   -2.5269    0.6253 C   0  0  0  0  0  0  0  0  0  0  0  0
   -3.5024   -0.1220   -1.1400 O   0  0  0  0  0  0  0  0  0  0  0  0
   -4.4867    0.7768   -1.6247 C   0  0  0  0  0  0  0  0  0  0  0  0
   -5.8723    0.2652   -1.3311 C   0  0  0  0  0  0  0  0  0  0  0  0
   -6.1422   -1.1043   -1.3100 C   0  0  0  0  0  0  0  0  0  0  0  0
   -7.4382   -1.5625   -1.0757 C   0  0  0  0  0  0  0  0  0  0  0  0
   -8.4774   -0.6565   -0.8693 C   0  0  0  0  0  0  0  0  0  0  0  0
   -8.2135    0.7129   -0.8949 C   0  0  0  0  0  0  0  0  0  0  0  0
   -6.9166    1.1697   -1.1201 C   0  0  0  0  0  0  0  0  0  0  0  0
    2.3885    5.7907   -0.1458 H   0  0  0  0  0  0  0  0  0  0  0  0
    1.8909    5.7888    1.5705 H   0  0  0  0  0  0  0  0  0  0  0  0
    0.8766    6.5993    0.3417 H   0  0  0  0  0  0  0  0  0  0  0  0
    1.1697    4.2646   -1.8107 H   0  0  0  0  0  0  0  0  0  0  0  0
   -0.2572    3.3251   -1.2574 H   0  0  0  0  0  0  0  0  0  0  0  0
   -0.3504    5.0972   -1.4171 H   0  0  0  0  0  0  0  0  0  0  0  0
    1.0586    1.1379    1.2771 H   0  0  0  0  0  0  0  0  0  0  0  0
   -0.0550    4.2580    2.3229 H   0  0  0  0  0  0  0  0  0  0  0  0
   -1.0726    5.2194    1.2048 H   0  0  0  0  0  0  0  0  0  0  0  0
   -1.0280    3.4405    1.0607 H   0  0  0  0  0  0  0  0  0  0  0  0
    1.6237    1.7988   -1.4893 H   0  0  0  0  0  0  0  0  0  0  0  0
    1.6279   -1.5028    0.3316 H   0  0  0  0  0  0  0  0  0  0  0  0
    3.7635    1.6040   -1.6555 H   0  0  0  0  0  0  0  0  0  0  0  0
    6.5284   -0.1876    1.9061 H   0  0  0  0  0  0  0  0  0  0  0  0
    5.6533   -1.6463    2.4408 H   0  0  0  0  0  0  0  0  0  0  0  0
    7.3993   -1.7522    2.0439 H   0  0  0  0  0  0  0  0  0  0  0  0
    7.7618    0.1785    0.1807 H   0  0  0  0  0  0  0  0  0  0  0  0
    8.1647    1.5856   -0.8179 H   0  0  0  0  0  0  0  0  0  0  0  0
    6.8724    1.7176    0.3976 H   0  0  0  0  0  0  0  0  0  0  0  0
    6.2665   -0.7593   -3.1119 H   0  0  0  0  0  0  0  0  0  0  0  0
    7.8860   -0.1109   -2.7411 H   0  0  0  0  0  0  0  0  0  0  0  0
    7.1743   -1.3765   -1.7026 H   0  0  0  0  0  0  0  0  0  0  0  0
    5.3596    1.6076   -3.1195 H   0  0  0  0  0  0  0  0  0  0  0  0
    5.6452    2.6787   -1.7189 H   0  0  0  0  0  0  0  0  0  0  0  0
    7.0022    2.1697   -2.7470 H   0  0  0  0  0  0  0  0  0  0  0  0
    5.6420   -3.6172    1.8049 H   0  0  0  0  0  0  0  0  0  0  0  0
    4.6723   -5.0106    1.3141 H   0  0  0  0  0  0  0  0  0  0  0  0
    5.4827   -4.0117    0.0807 H   0  0  0  0  0  0  0  0  0  0  0  0
    2.0660   -2.5010    2.3055 H   0  0  0  0  0  0  0  0  0  0  0  0
    2.8512   -4.0354    2.7665 H   0  0  0  0  0  0  0  0  0  0  0  0
    3.6874   -2.4836    3.0249 H   0  0  0  0  0  0  0  0  0  0  0  0
    1.7441   -3.4928   -0.1040 H   0  0  0  0  0  0  0  0  0  0  0  0
    3.1681   -4.1170   -0.9586 H   0  0  0  0  0  0  0  0  0  0  0  0
    2.5402   -4.9708    0.4774 H   0  0  0  0  0  0  0  0  0  0  0  0
   -3.0186   -0.2944   -3.7023 H   0  0  0  0  0  0  0  0  0  0  0  0
   -0.7868   -0.0102   -4.7722 H   0  0  0  0  0  0  0  0  0  0  0  0
    1.1720    0.5940   -3.3574 H   0  0  0  0  0  0  0  0  0  0  0  0
   -1.0814    1.5873    2.0393 H   0  0  0  0  0  0  0  0  0  0  0  0
   -1.4611   -0.2969    3.7243 H   0  0  0  0  0  0  0  0  0  0  0  0
   -2.1640    1.2821    4.0520 H   0  0  0  0  0  0  0  0  0  0  0  0
   -3.7295   -1.1375    3.0012 H   0  0  0  0  0  0  0  0  0  0  0  0
   -3.7984   -0.4361    4.6209 H   0  0  0  0  0  0  0  0  0  0  0  0
   -5.7129    0.3278    3.1900 H   0  0  0  0  0  0  0  0  0  0  0  0
   -4.6891    1.6949    3.6576 H   0  0  0  0  0  0  0  0  0  0  0  0
   -4.5461    0.1803    0.9937 H   0  0  0  0  0  0  0  0  0  0  0  0
   -5.2507    1.7829    1.2115 H   0  0  0  0  0  0  0  0  0  0  0  0
   -3.0801    2.6967    1.9152 H   0  0  0  0  0  0  0  0  0  0  0  0
   -2.8962    1.9500    0.3277 H   0  0  0  0  0  0  0  0  0  0  0  0
   -2.0309   -1.9946    2.2734 H   0  0  0  0  0  0  0  0  0  0  0  0
    0.0992   -2.9041    1.3313 H   0  0  0  0  0  0  0  0  0  0  0  0
   -1.1947   -4.0728    1.6088 H   0  0  0  0  0  0  0  0  0  0  0  0
   -0.5189   -2.8863   -1.1385 H   0  0  0  0  0  0  0  0  0  0  0  0
   -0.0649   -4.5020   -0.5674 H   0  0  0  0  0  0  0  0  0  0  0  0
   -2.1546   -4.6231   -1.9332 H   0  0  0  0  0  0  0  0  0  0  0  0
   -2.4526   -5.1046   -0.2563 H   0  0  0  0  0  0  0  0  0  0  0  0
   -3.0493   -2.3872   -1.5281 H   0  0  0  0  0  0  0  0  0  0  0  0
   -4.2414   -3.5761   -0.9983 H   0  0  0  0  0  0  0  0  0  0  0  0
   -3.6697   -3.2925    1.3251 H   0  0  0  0  0  0  0  0  0  0  0  0
   -4.0059   -1.6986    0.6392 H   0  0  0  0  0  0  0  0  0  0  0  0
   -4.3432    1.7674   -1.1591 H   0  0  0  0  0  0  0  0  0  0  0  0
   -4.3764    0.9145   -2.7123 H   0  0  0  0  0  0  0  0  0  0  0  0
   -5.3245   -1.8071   -1.4678 H   0  0  0  0  0  0  0  0  0  0  0  0
   -7.6360   -2.6355   -1.0547 H   0  0  0  0  0  0  0  0  0  0  0  0
   -9.4908   -1.0160   -0.6851 H   0  0  0  0  0  0  0  0  0  0  0  0
   -9.0194    1.4297   -0.7298 H   0  0  0  0  0  0  0  0  0  0  0  0
   -6.7113    2.2433   -1.1233 H   0  0  0  0  0  0  0  0  0  0  0  0
  1  2  1  0  0  0  0
  1 52  1  0  0  0  0
  1 53  1  0  0  0  0
  1 54  1  0  0  0  0
  2  3  1  0  0  0  0
  2  4  1  0  0  0  0
  2  7  1  0  0  0  0
  3 55  1  0  0  0  0
  3 56  1  0  0  0  0
  3 57  1  0  0  0  0
  4  5  2  1  0  0  0
  4  6  1  0  0  0  0
  6  8  1  0  0  0  0
  6 58  1  0  0  0  0
  7 59  1  0  0  0  0
  7 60  1  0  0  0  0
  7 61  1  0  0  0  0
  8  9  1  0  0  0  0
  8 25  1  0  0  0  0
  8 62  1  6  0  0  0
  9 10  2  0  0  0  0
  9 14  1  0  0  0  0
 10 11  1  0  0  0  0
 10 63  1  0  0  0  0
 11 12  2  0  0  0  0
 11 21  1  0  0  0  0
 12 13  1  0  0  0  0
 12 15  1  0  0  0  0
 13 14  2  0  0  0  0
 13 17  1  0  0  0  0
 14 64  1  0  0  0  0
 15 16  1  0  0  0  0
 16 65  1  0  0  0  0
 16 66  1  0  0  0  0
 16 67  1  0  0  0  0
 17 18  1  0  0  0  0
 17 19  1  0  0  0  0
 17 20  1  0  0  0  0
 18 68  1  0  0  0  0
 18 69  1  0  0  0  0
 18 70  1  0  0  0  0
 19 71  1  0  0  0  0
 19 72  1  0  0  0  0
 19 73  1  0  0  0  0
 20 74  1  0  0  0  0
 20 75  1  0  0  0  0
 20 76  1  0  0  0  0
 21 22  1  0  0  0  0
 21 23  1  0  0  0  0
 21 24  1  0  0  0  0
 22 77  1  0  0  0  0
 22 78  1  0  0  0  0
 22 79  1  0  0  0  0
 23 80  1  0  0  0  0
 23 81  1  0  0  0  0
 23 82  1  0  0  0  0
 24 83  1  0  0  0  0
 24 84  1  0  0  0  0
 24 85  1  0  0  0  0
 25 26  2  0  0  0  0
 25 30  1  0  0  0  0
 26 27  1  0  0  0  0
 26 31  1  0  0  0  0
 27 28  2  0  0  0  0
 27 44  1  0  0  0  0
 28 29  1  0  0  0  0
 28 86  1  0  0  0  0
 29 30  2  0  0  0  0
 29 87  1  0  0  0  0
 30 88  1  0  0  0  0
 31 32  1  0  0  0  0
 31 38  1  0  0  0  0
 32 33  1  0  0  0  0
 32 37  1  0  0  0  0
 32 89  1  0  0  0  0
 33 34  1  0  0  0  0
 33 90  1  0  0  0  0
 33 91  1  0  0  0  0
 34 35  1  0  0  0  0
 34 92  1  0  0  0  0
 34 93  1  0  0  0  0
 35 36  1  0  0  0  0
 35 94  1  0  0  0  0
 35 95  1  0  0  0  0
 36 37  1  0  0  0  0
 36 96  1  0  0  0  0
 36 97  1  0  0  0  0
 37 98  1  0  0  0  0
 37 99  1  0  0  0  0
 38 39  1  0  0  0  0
 38 43  1  0  0  0  0
 38100  1  0  0  0  0
 39 40  1  0  0  0  0
 39101  1  0  0  0  0
 39102  1  0  0  0  0
 40 41  1  0  0  0  0
 40103  1  0  0  0  0
 40104  1  0  0  0  0
 41 42  1  0  0  0  0
 41105  1  0  0  0  0
 41106  1  0  0  0  0
 42 43  1  0  0  0  0
 42107  1  0  0  0  0
 42108  1  0  0  0  0
 43109  1  0  0  0  0
 43110  1  0  0  0  0
 44 45  1  0  0  0  0
 45 46  1  0  0  0  0
 45111  1  0  0  0  0
 45112  1  0  0  0  0
 46 47  2  0  0  0  0
 46 51  1  0  0  0  0
 47 48  1  0  0  0  0
 47113  1  0  0  0  0
 48 49  2  0  0  0  0
 48114  1  0  0  0  0
 49 50  1  0  0  0  0
 49115  1  0  0  0  0
 50 51  2  0  0  0  0
 50116  1  0  0  0  0
 51117  1  0  0  0  0
M  END
$$$$
