Title Card Required
 OpenBabel03192317423D

 99102  0  0  1  0  0  0  0  0999 V2000
   -1.8168   -4.8696    1.5411 C   0  0  0  0  0  0  0  0  0  0  0  0
   -1.7495   -4.2895    0.1293 C   0  0  0  0  0  0  0  0  0  0  0  0
   -3.0435   -3.5827   -0.2548 C   0  0  0  0  0  0  0  0  0  0  0  0
   -0.4321   -2.9903    0.2480 S   0  0  1  0  0  0  0  0  0  0  0  0
    0.8299   -3.7448    0.5663 O   0  0  0  0  0  0  0  0  0  0  0  0
   -0.3730   -2.5086   -1.3725 N   0  0  0  0  0  0  0  0  0  0  0  0
   -1.3142   -5.3366   -0.8832 C   0  0  0  0  0  0  0  0  0  0  0  0
   -0.3033   -1.0751   -1.6683 C   0  0  1  0  0  0  0  0  0  0  0  0
   -1.6312   -0.3978   -1.3299 C   0  0  0  0  0  0  0  0  0  0  0  0
   -2.1365   -0.0507   -0.0624 C   0  0  0  0  0  0  0  0  0  0  0  0
   -3.4705    0.4139   -0.0025 C   0  0  0  0  0  0  0  0  0  0  0  0
   -4.2791    0.6024   -1.1150 C   0  0  0  0  0  0  0  0  0  0  0  0
   -3.7460    0.3143   -2.3881 C   0  0  0  0  0  0  0  0  0  0  0  0
   -2.4553   -0.1853   -2.4512 C   0  0  0  0  0  0  0  0  0  0  0  0
   -4.4394    0.4425   -3.5417 O   0  0  0  0  0  0  0  0  0  0  0  0
   -5.2251    1.6007   -3.7485 C   0  0  0  0  0  0  0  0  0  0  0  0
   -5.5603    1.0326   -1.0599 O   0  0  0  0  0  0  0  0  0  0  0  0
   -6.0953    1.3726    0.1945 C   0  0  0  0  0  0  0  0  0  0  0  0
   -1.5569   -0.2495    1.7129 P   0  0  0  0  0  0  0  0  0  0  0  0
   -1.8446    1.4896    2.3030 C   0  0  0  0  0  0  0  0  0  0  0  0
   -2.0294    1.6611    3.6796 C   0  0  0  0  0  0  0  0  0  0  0  0
   -2.1797    2.9354    4.2268 C   0  0  0  0  0  0  0  0  0  0  0  0
   -2.1547    4.0575    3.4007 C   0  0  0  0  0  0  0  0  0  0  0  0
   -1.9790    3.8989    2.0254 C   0  0  0  0  0  0  0  0  0  0  0  0
   -1.8273    2.6245    1.4808 C   0  0  0  0  0  0  0  0  0  0  0  0
    0.2713   -0.2611    2.0003 C   0  0  0  0  0  0  0  0  0  0  0  0
    0.7747   -1.3653    2.6996 C   0  0  0  0  0  0  0  0  0  0  0  0
    2.0797   -1.3656    3.1891 C   0  0  0  0  0  0  0  0  0  0  0  0
    2.9006   -0.2619    2.9764 C   0  0  0  0  0  0  0  0  0  0  0  0
    2.4165    0.8390    2.2673 C   0  0  0  0  0  0  0  0  0  0  0  0
    1.1058    0.8456    1.7993 C   0  0  0  0  0  0  0  0  0  0  0  0
    0.9727   -0.3499   -1.2615 C   0  0  0  0  0  0  0  0  0  0  0  0
    2.1232   -1.0460   -0.9163 C   0  0  0  0  0  0  0  0  0  0  0  0
    3.3677   -0.4143   -0.7720 C   0  0  0  0  0  0  0  0  0  0  0  0
    3.4114    0.9806   -0.9876 C   0  0  0  0  0  0  0  0  0  0  0  0
    2.2357    1.7359   -1.2304 C   0  0  0  0  0  0  0  0  0  0  0  0
    1.0391    1.0364   -1.3925 C   0  0  0  0  0  0  0  0  0  0  0  0
    4.5956    1.6780   -0.9040 O   0  0  0  0  0  0  0  0  0  0  0  0
    5.4596    1.6468   -2.0183 C   0  0  0  0  0  0  0  0  0  0  0  0
    2.2441    3.2775   -1.2678 C   0  0  0  0  0  0  0  0  0  0  0  0
    3.0963    3.8152   -2.4297 C   0  0  0  0  0  0  0  0  0  0  0  0
    0.8277    3.8393   -1.4536 C   0  0  0  0  0  0  0  0  0  0  0  0
    2.7793    3.8306    0.0657 C   0  0  0  0  0  0  0  0  0  0  0  0
    4.5857   -1.2998   -0.4301 C   0  0  0  0  0  0  0  0  0  0  0  0
    5.2449   -1.7870   -1.7344 C   0  0  0  0  0  0  0  0  0  0  0  0
    5.6155   -0.5892    0.4664 C   0  0  0  0  0  0  0  0  0  0  0  0
    4.1391   -2.5608    0.3369 C   0  0  0  0  0  0  0  0  0  0  0  0
   -2.0716   -4.0880    2.2748 H   0  0  0  0  0  0  0  0  0  0  0  0
   -0.8524   -5.3159    1.8201 H   0  0  0  0  0  0  0  0  0  0  0  0
   -2.5959   -5.6454    1.5836 H   0  0  0  0  0  0  0  0  0  0  0  0
   -3.3034   -2.8054    0.4816 H   0  0  0  0  0  0  0  0  0  0  0  0
   -2.9569   -3.1085   -1.2432 H   0  0  0  0  0  0  0  0  0  0  0  0
   -3.8640   -4.3162   -0.2863 H   0  0  0  0  0  0  0  0  0  0  0  0
    0.2996   -3.0797   -1.8856 H   0  0  0  0  0  0  0  0  0  0  0  0
   -0.3009   -5.6922   -0.6445 H   0  0  0  0  0  0  0  0  0  0  0  0
   -2.0042   -6.1938   -0.8510 H   0  0  0  0  0  0  0  0  0  0  0  0
   -1.3276   -4.9266   -1.9033 H   0  0  0  0  0  0  0  0  0  0  0  0
   -0.2723   -1.0595   -2.7682 H   0  0  0  0  0  0  0  0  0  0  0  0
   -3.8974    0.6309    0.9772 H   0  0  0  0  0  0  0  0  0  0  0  0
   -2.0886   -0.4261   -3.4504 H   0  0  0  0  0  0  0  0  0  0  0  0
   -6.2385    1.4780   -3.3462 H   0  0  0  0  0  0  0  0  0  0  0  0
   -4.7601    2.4824   -3.2801 H   0  0  0  0  0  0  0  0  0  0  0  0
   -5.2740    1.7540   -4.8339 H   0  0  0  0  0  0  0  0  0  0  0  0
   -6.1342    0.4985    0.8647 H   0  0  0  0  0  0  0  0  0  0  0  0
   -5.5074    2.1694    0.6798 H   0  0  0  0  0  0  0  0  0  0  0  0
   -7.1144    1.7315    0.0133 H   0  0  0  0  0  0  0  0  0  0  0  0
   -2.0485    0.7834    4.3311 H   0  0  0  0  0  0  0  0  0  0  0  0
   -2.3204    3.0505    5.3029 H   0  0  0  0  0  0  0  0  0  0  0  0
   -2.2739    5.0550    3.8270 H   0  0  0  0  0  0  0  0  0  0  0  0
   -1.9565    4.7728    1.3714 H   0  0  0  0  0  0  0  0  0  0  0  0
   -1.6973    2.5068    0.4020 H   0  0  0  0  0  0  0  0  0  0  0  0
    0.1343   -2.2305    2.8830 H   0  0  0  0  0  0  0  0  0  0  0  0
    2.4504   -2.2336    3.7364 H   0  0  0  0  0  0  0  0  0  0  0  0
    3.9209   -0.2569    3.3645 H   0  0  0  0  0  0  0  0  0  0  0  0
    3.0606    1.7016    2.0843 H   0  0  0  0  0  0  0  0  0  0  0  0
    0.7204    1.7271    1.2846 H   0  0  0  0  0  0  0  0  0  0  0  0
    2.0534   -2.1179   -0.7431 H   0  0  0  0  0  0  0  0  0  0  0  0
    0.1184    1.5724   -1.6209 H   0  0  0  0  0  0  0  0  0  0  0  0
    6.2343    0.8738   -1.9050 H   0  0  0  0  0  0  0  0  0  0  0  0
    4.9039    1.4671   -2.9525 H   0  0  0  0  0  0  0  0  0  0  0  0
    5.9623    2.6219   -2.0848 H   0  0  0  0  0  0  0  0  0  0  0  0
    2.8339    3.3163   -3.3752 H   0  0  0  0  0  0  0  0  0  0  0  0
    2.9140    4.8939   -2.5531 H   0  0  0  0  0  0  0  0  0  0  0  0
    4.1665    3.6833   -2.2449 H   0  0  0  0  0  0  0  0  0  0  0  0
    0.1528    3.5149   -0.6477 H   0  0  0  0  0  0  0  0  0  0  0  0
    0.8736    4.9377   -1.4280 H   0  0  0  0  0  0  0  0  0  0  0  0
    0.3886    3.5437   -2.4179 H   0  0  0  0  0  0  0  0  0  0  0  0
    2.1069    3.5611    0.8952 H   0  0  0  0  0  0  0  0  0  0  0  0
    3.7840    3.4463    0.2805 H   0  0  0  0  0  0  0  0  0  0  0  0
    2.8253    4.9301    0.0190 H   0  0  0  0  0  0  0  0  0  0  0  0
    5.5752   -0.9637   -2.3793 H   0  0  0  0  0  0  0  0  0  0  0  0
    6.1200   -2.4142   -1.5011 H   0  0  0  0  0  0  0  0  0  0  0  0
    4.5334   -2.3955   -2.3122 H   0  0  0  0  0  0  0  0  0  0  0  0
    5.1176   -0.1364    1.3351 H   0  0  0  0  0  0  0  0  0  0  0  0
    6.3407   -1.3303    0.8344 H   0  0  0  0  0  0  0  0  0  0  0  0
    6.1739    0.2021   -0.0416 H   0  0  0  0  0  0  0  0  0  0  0  0
    3.5207   -2.3087    1.2084 H   0  0  0  0  0  0  0  0  0  0  0  0
    3.5585   -3.2572   -0.2819 H   0  0  0  0  0  0  0  0  0  0  0  0
    5.0324   -3.1024    0.6808 H   0  0  0  0  0  0  0  0  0  0  0  0
  1  2  1  0  0  0  0
  1 48  1  0  0  0  0
  1 49  1  0  0  0  0
  1 50  1  0  0  0  0
  2  3  1  0  0  0  0
  2  4  1  0  0  0  0
  2  7  1  0  0  0  0
  3 51  1  0  0  0  0
  3 52  1  0  0  0  0
  3 53  1  0  0  0  0
  4  5  2  6  0  0  0
  4  6  1  0  0  0  0
  6  8  1  0  0  0  0
  6 54  1  0  0  0  0
  7 55  1  0  0  0  0
  7 56  1  0  0  0  0
  7 57  1  0  0  0  0
  8  9  1  0  0  0  0
  8 32  1  0  0  0  0
  8 58  1  6  0  0  0
  9 10  2  0  0  0  0
  9 14  1  0  0  0  0
 10 11  1  0  0  0  0
 10 19  1  0  0  0  0
 11 12  2  0  0  0  0
 11 59  1  0  0  0  0
 12 13  1  0  0  0  0
 12 17  1  0  0  0  0
 13 14  2  0  0  0  0
 13 15  1  0  0  0  0
 14 60  1  0  0  0  0
 15 16  1  0  0  0  0
 16 61  1  0  0  0  0
 16 62  1  0  0  0  0
 16 63  1  0  0  0  0
 17 18  1  0  0  0  0
 18 64  1  0  0  0  0
 18 65  1  0  0  0  0
 18 66  1  0  0  0  0
 19 20  1  0  0  0  0
 19 26  1  0  0  0  0
 20 21  2  0  0  0  0
 20 25  1  0  0  0  0
 21 22  1  0  0  0  0
 21 67  1  0  0  0  0
 22 23  2  0  0  0  0
 22 68  1  0  0  0  0
 23 24  1  0  0  0  0
 23 69  1  0  0  0  0
 24 25  2  0  0  0  0
 24 70  1  0  0  0  0
 25 71  1  0  0  0  0
 26 27  2  0  0  0  0
 26 31  1  0  0  0  0
 27 28  1  0  0  0  0
 27 72  1  0  0  0  0
 28 29  2  0  0  0  0
 28 73  1  0  0  0  0
 29 30  1  0  0  0  0
 29 74  1  0  0  0  0
 30 31  2  0  0  0  0
 30 75  1  0  0  0  0
 31 76  1  0  0  0  0
 32 33  2  0  0  0  0
 32 37  1  0  0  0  0
 33 34  1  0  0  0  0
 33 77  1  0  0  0  0
 34 35  2  0  0  0  0
 34 44  1  0  0  0  0
 35 36  1  0  0  0  0
 35 38  1  0  0  0  0
 36 37  2  0  0  0  0
 36 40  1  0  0  0  0
 37 78  1  0  0  0  0
 38 39  1  0  0  0  0
 39 79  1  0  0  0  0
 39 80  1  0  0  0  0
 39 81  1  0  0  0  0
 40 41  1  0  0  0  0
 40 42  1  0  0  0  0
 40 43  1  0  0  0  0
 41 82  1  0  0  0  0
 41 83  1  0  0  0  0
 41 84  1  0  0  0  0
 42 85  1  0  0  0  0
 42 86  1  0  0  0  0
 42 87  1  0  0  0  0
 43 88  1  0  0  0  0
 43 89  1  0  0  0  0
 43 90  1  0  0  0  0
 44 45  1  0  0  0  0
 44 46  1  0  0  0  0
 44 47  1  0  0  0  0
 45 91  1  0  0  0  0
 45 92  1  0  0  0  0
 45 93  1  0  0  0  0
 46 94  1  0  0  0  0
 46 95  1  0  0  0  0
 46 96  1  0  0  0  0
 47 97  1  0  0  0  0
 47 98  1  0  0  0  0
 47 99  1  0  0  0  0
M  END
$$$$
