Title Card Required
 OpenBabel03192317423D

135148  0  0  1  0  0  0  0  0999 V2000
   -0.1738   -0.0052    0.0097 C   0  0  2  0  0  0  0  0  0  0  0  0
    0.6628   -0.3933   -1.2340 C   0  0  0  0  0  0  0  0  0  0  0  0
    1.5553   -1.5950   -1.0463 C   0  0  0  0  0  0  0  0  0  0  0  0
    1.0219   -2.8902   -0.9853 C   0  0  0  0  0  0  0  0  0  0  0  0
    1.8411   -3.9977   -0.8066 C   0  0  0  0  0  0  0  0  0  0  0  0
    3.2342   -3.8714   -0.6907 C   0  0  0  0  0  0  0  0  0  0  0  0
    3.7661   -2.5818   -0.7808 C   0  0  0  0  0  0  0  0  0  0  0  0
    2.9416   -1.4679   -0.9582 C   0  0  0  0  0  0  0  0  0  0  0  0
    4.0933   -5.1159   -0.4941 C   0  0  2  0  0  0  0  0  0  0  0  0
    3.8949   -6.0889   -1.6797 C   0  0  0  0  0  0  0  0  0  0  0  0
    4.7198   -7.3668   -1.4822 C   0  0  1  0  0  0  0  0  0  0  0  0
    6.2073   -7.0044   -1.3884 C   0  0  0  0  0  0  0  0  0  0  0  0
    6.4256   -6.0600   -0.1996 C   0  0  2  0  0  0  0  0  0  0  0  0
    5.9938   -6.7577    1.0963 C   0  0  0  0  0  0  0  0  0  0  0  0
    4.5063   -7.1204    1.0052 C   0  0  1  0  0  0  0  0  0  0  0  0
    3.6808   -5.8421    0.8077 C   0  0  0  0  0  0  0  0  0  0  0  0
    4.2805   -8.0617   -0.1860 C   0  0  0  0  0  0  0  0  0  0  0  0
    5.5944   -4.7861   -0.3975 C   0  0  0  0  0  0  0  0  0  0  0  0
   -1.9768   -1.5353   -0.5253 O   0  0  0  0  0  0  0  0  0  0  0  0
   -1.0839   -1.1405    0.4216 C   0  0  0  0  0  0  0  0  0  0  0  0
   -1.1043   -1.7265    1.5400 N   0  0  0  0  0  0  0  0  0  0  0  0
   -2.2179   -2.6757    1.5155 C   0  0  2  0  0  0  0  0  0  0  0  0
   -2.6201   -2.7065   -0.0062 C   0  0  1  0  0  0  0  0  0  0  0  0
   -1.9753    1.4984    0.5869 O   0  0  0  0  0  0  0  0  0  0  0  0
   -1.0909    1.1331   -0.3751 C   0  0  0  0  0  0  0  0  0  0  0  0
   -1.1168    1.7555   -1.4744 N   0  0  0  0  0  0  0  0  0  0  0  0
   -2.2145    2.7138   -1.4082 C   0  0  2  0  0  0  0  0  0  0  0  0
   -2.6533    2.6677    0.1104 C   0  0  1  0  0  0  0  0  0  0  0  0
    0.6849    0.3872    1.2385 C   0  0  0  0  0  0  0  0  0  0  0  0
    1.5682    1.5937    1.0387 C   0  0  0  0  0  0  0  0  0  0  0  0
    1.0291    2.8872    0.9896 C   0  0  0  0  0  0  0  0  0  0  0  0
    1.8418    3.9989    0.8079 C   0  0  0  0  0  0  0  0  0  0  0  0
    3.2342    3.8794    0.6778 C   0  0  0  0  0  0  0  0  0  0  0  0
    3.7720    2.5914    0.7538 C   0  0  0  0  0  0  0  0  0  0  0  0
    2.9539    1.4732    0.9333 C   0  0  0  0  0  0  0  0  0  0  0  0
    4.0870    5.1285    0.4829 C   0  0  2  0  0  0  0  0  0  0  0  0
    3.8897    6.0958    1.6733 C   0  0  0  0  0  0  0  0  0  0  0  0
    4.7088    7.3778    1.4780 C   0  0  1  0  0  0  0  0  0  0  0  0
    6.1973    7.0217    1.3772 C   0  0  0  0  0  0  0  0  0  0  0  0
    6.4146    6.0828    0.1839 C   0  0  2  0  0  0  0  0  0  0  0  0
    5.9752    6.7841   -1.1076 C   0  0  0  0  0  0  0  0  0  0  0  0
    4.4866    7.1407   -1.0095 C   0  0  1  0  0  0  0  0  0  0  0  0
    3.6666    5.8586   -0.8142 C   0  0  0  0  0  0  0  0  0  0  0  0
    4.2618    8.0764    0.1863 C   0  0  0  0  0  0  0  0  0  0  0  0
    5.5890    4.8050    0.3792 C   0  0  0  0  0  0  0  0  0  0  0  0
   -4.1245    2.5880    0.4037 C   0  0  0  0  0  0  0  0  0  0  0  0
   -3.3191    2.3761   -2.3907 C   0  0  0  0  0  0  0  0  0  0  0  0
   -4.8262    3.7190    0.8225 C   0  0  0  0  0  0  0  0  0  0  0  0
   -6.2068    3.6577    1.0173 C   0  0  0  0  0  0  0  0  0  0  0  0
   -6.8891    2.4609    0.8059 C   0  0  0  0  0  0  0  0  0  0  0  0
   -6.1884    1.3228    0.4011 C   0  0  0  0  0  0  0  0  0  0  0  0
   -4.8140    1.3905    0.1964 C   0  0  0  0  0  0  0  0  0  0  0  0
   -3.3822    1.1323   -3.0194 C   0  0  0  0  0  0  0  0  0  0  0  0
   -4.4629    0.8130   -3.8451 C   0  0  0  0  0  0  0  0  0  0  0  0
   -5.4871    1.7346   -4.0487 C   0  0  0  0  0  0  0  0  0  0  0  0
   -5.4181    2.9890   -3.4393 C   0  0  0  0  0  0  0  0  0  0  0  0
   -4.3373    3.3076   -2.6235 C   0  0  0  0  0  0  0  0  0  0  0  0
   -3.3169   -2.2387    2.4612 C   0  0  0  0  0  0  0  0  0  0  0  0
   -4.0831   -2.7269   -0.3663 C   0  0  0  0  0  0  0  0  0  0  0  0
   -4.6236   -1.7765   -1.2330 C   0  0  0  0  0  0  0  0  0  0  0  0
   -5.9797   -1.8065   -1.5620 C   0  0  0  0  0  0  0  0  0  0  0  0
   -6.8051   -2.7965   -1.0342 C   0  0  0  0  0  0  0  0  0  0  0  0
   -6.2647   -3.7645   -0.1854 C   0  0  0  0  0  0  0  0  0  0  0  0
   -4.9125   -3.7326    0.1425 C   0  0  0  0  0  0  0  0  0  0  0  0
   -3.7475   -0.9088    2.4695 C   0  0  0  0  0  0  0  0  0  0  0  0
   -4.8135   -0.5189    3.2773 C   0  0  0  0  0  0  0  0  0  0  0  0
   -5.4485   -1.4515    4.0985 C   0  0  0  0  0  0  0  0  0  0  0  0
   -5.0067   -2.7733    4.1142 C   0  0  0  0  0  0  0  0  0  0  0  0
   -3.9450   -3.1625    3.2978 C   0  0  0  0  0  0  0  0  0  0  0  0
   -0.0390   -0.5717   -2.0609 H   0  0  0  0  0  0  0  0  0  0  0  0
    1.2570    0.4882   -1.5132 H   0  0  0  0  0  0  0  0  0  0  0  0
   -0.0537   -3.0314   -1.1083 H   0  0  0  0  0  0  0  0  0  0  0  0
    1.3829   -4.9882   -0.7655 H   0  0  0  0  0  0  0  0  0  0  0  0
    4.8426   -2.4248   -0.7205 H   0  0  0  0  0  0  0  0  0  0  0  0
    3.3909   -0.4765   -1.0457 H   0  0  0  0  0  0  0  0  0  0  0  0
    2.8281   -6.3474   -1.7742 H   0  0  0  0  0  0  0  0  0  0  0  0
    4.1864   -5.5815   -2.6144 H   0  0  0  0  0  0  0  0  0  0  0  0
    4.5547   -8.0405   -2.3376 H   0  0  0  0  0  0  0  0  0  0  0  0
    6.8133   -7.9169   -1.2632 H   0  0  0  0  0  0  0  0  0  0  0  0
    6.5364   -6.5185   -2.3215 H   0  0  0  0  0  0  0  0  0  0  0  0
    7.4904   -5.7868   -0.1355 H   0  0  0  0  0  0  0  0  0  0  0  0
    6.5971   -7.6663    1.2571 H   0  0  0  0  0  0  0  0  0  0  0  0
    6.1677   -6.0932    1.9586 H   0  0  0  0  0  0  0  0  0  0  0  0
    4.1875   -7.6168    1.9352 H   0  0  0  0  0  0  0  0  0  0  0  0
    3.8187   -5.1574    1.6608 H   0  0  0  0  0  0  0  0  0  0  0  0
    2.6089   -6.0945    0.7688 H   0  0  0  0  0  0  0  0  0  0  0  0
    3.2154   -8.3396   -0.2495 H   0  0  0  0  0  0  0  0  0  0  0  0
    4.8516   -8.9940   -0.0445 H   0  0  0  0  0  0  0  0  0  0  0  0
    5.7677   -4.0948    0.4441 H   0  0  0  0  0  0  0  0  0  0  0  0
    5.9197   -4.2705   -1.3164 H   0  0  0  0  0  0  0  0  0  0  0  0
   -1.8612   -3.6681    1.8254 H   0  0  0  0  0  0  0  0  0  0  0  0
   -2.1278   -3.5771   -0.4751 H   0  0  0  0  0  0  0  0  0  0  0  0
   -1.8390    3.7211   -1.6423 H   0  0  0  0  0  0  0  0  0  0  0  0
   -2.2232    3.5360    0.6358 H   0  0  0  0  0  0  0  0  0  0  0  0
   -0.0044    0.5562    2.0774 H   0  0  0  0  0  0  0  0  0  0  0  0
    1.2888   -0.4917    1.5049 H   0  0  0  0  0  0  0  0  0  0  0  0
   -0.0455    3.0239    1.1261 H   0  0  0  0  0  0  0  0  0  0  0  0
    1.3793    4.9879    0.7769 H   0  0  0  0  0  0  0  0  0  0  0  0
    4.8485    2.4388    0.6817 H   0  0  0  0  0  0  0  0  0  0  0  0
    3.4084    0.4834    1.0115 H   0  0  0  0  0  0  0  0  0  0  0  0
    2.8224    6.3502    1.7732 H   0  0  0  0  0  0  0  0  0  0  0  0
    4.1867    5.5858    2.6048 H   0  0  0  0  0  0  0  0  0  0  0  0
    4.5441    8.0473    2.3368 H   0  0  0  0  0  0  0  0  0  0  0  0
    6.7994    7.9368    1.2537 H   0  0  0  0  0  0  0  0  0  0  0  0
    6.5314    6.5331    2.3073 H   0  0  0  0  0  0  0  0  0  0  0  0
    7.4802    5.8140    0.1147 H   0  0  0  0  0  0  0  0  0  0  0  0
    6.5743    7.6957   -1.2670 H   0  0  0  0  0  0  0  0  0  0  0  0
    6.1484    6.1238   -1.9732 H   0  0  0  0  0  0  0  0  0  0  0  0
    4.1626    7.6397   -1.9363 H   0  0  0  0  0  0  0  0  0  0  0  0
    3.8037    5.1780   -1.6707 H   0  0  0  0  0  0  0  0  0  0  0  0
    2.5937    6.1065   -0.7698 H   0  0  0  0  0  0  0  0  0  0  0  0
    3.1959    8.3499    0.2550 H   0  0  0  0  0  0  0  0  0  0  0  0
    4.8288    9.0114    0.0464 H   0  0  0  0  0  0  0  0  0  0  0  0
    5.7621    4.1184   -0.4662 H   0  0  0  0  0  0  0  0  0  0  0  0
    5.9195    4.2862    1.2945 H   0  0  0  0  0  0  0  0  0  0  0  0
   -4.2912    4.6559    0.9974 H   0  0  0  0  0  0  0  0  0  0  0  0
   -6.7494    4.5467    1.3429 H   0  0  0  0  0  0  0  0  0  0  0  0
   -7.9676    2.4125    0.9641 H   0  0  0  0  0  0  0  0  0  0  0  0
   -6.7057    0.3736    0.2476 H   0  0  0  0  0  0  0  0  0  0  0  0
   -4.2641    0.5022   -0.1173 H   0  0  0  0  0  0  0  0  0  0  0  0
   -2.5788    0.4116   -2.8557 H   0  0  0  0  0  0  0  0  0  0  0  0
   -4.5031   -0.1661   -4.3270 H   0  0  0  0  0  0  0  0  0  0  0  0
   -6.3342    1.4820   -4.6887 H   0  0  0  0  0  0  0  0  0  0  0  0
   -6.2107    3.7215   -3.5997 H   0  0  0  0  0  0  0  0  0  0  0  0
   -4.2930    4.2875   -2.1415 H   0  0  0  0  0  0  0  0  0  0  0  0
   -3.9762   -1.0098   -1.6555 H   0  0  0  0  0  0  0  0  0  0  0  0
   -6.3817   -1.0452   -2.2344 H   0  0  0  0  0  0  0  0  0  0  0  0
   -7.8664   -2.8215   -1.2867 H   0  0  0  0  0  0  0  0  0  0  0  0
   -6.9028   -4.5474    0.2270 H   0  0  0  0  0  0  0  0  0  0  0  0
   -4.5016   -4.4914    0.8120 H   0  0  0  0  0  0  0  0  0  0  0  0
   -3.2372   -0.1674    1.8503 H   0  0  0  0  0  0  0  0  0  0  0  0
   -5.1461    0.5212    3.2619 H   0  0  0  0  0  0  0  0  0  0  0  0
   -6.2820   -1.1457    4.7328 H   0  0  0  0  0  0  0  0  0  0  0  0
   -5.4879   -3.5045    4.7658 H   0  0  0  0  0  0  0  0  0  0  0  0
   -3.6006   -4.2001    3.3116 H   0  0  0  0  0  0  0  0  0  0  0  0
  1  2  1  6  0  0  0
  1 20  1  0  0  0  0
  1 25  1  0  0  0  0
  1 29  1  0  0  0  0
  2  3  1  0  0  0  0
  2 70  1  0  0  0  0
  2 71  1  0  0  0  0
  3  4  2  0  0  0  0
  3  8  1  0  0  0  0
  4  5  1  0  0  0  0
  4 72  1  0  0  0  0
  5  6  2  0  0  0  0
  5 73  1  0  0  0  0
  6  7  1  0  0  0  0
  7  8  2  0  0  0  0
  7 74  1  0  0  0  0
  8 75  1  0  0  0  0
  9  6  1  6  0  0  0
  9 10  1  0  0  0  0
  9 16  1  0  0  0  0
  9 18  1  0  0  0  0
 10 11  1  0  0  0  0
 10 76  1  0  0  0  0
 10 77  1  0  0  0  0
 11 12  1  0  0  0  0
 11 17  1  0  0  0  0
 11 78  1  6  0  0  0
 12 13  1  0  0  0  0
 12 79  1  0  0  0  0
 12 80  1  0  0  0  0
 13 14  1  0  0  0  0
 13 18  1  0  0  0  0
 13 81  1  1  0  0  0
 14 15  1  0  0  0  0
 14 82  1  0  0  0  0
 14 83  1  0  0  0  0
 15 16  1  0  0  0  0
 15 17  1  0  0  0  0
 15 84  1  1  0  0  0
 16 85  1  0  0  0  0
 16 86  1  0  0  0  0
 17 87  1  0  0  0  0
 17 88  1  0  0  0  0
 18 89  1  0  0  0  0
 18 90  1  0  0  0  0
 19 20  1  0  0  0  0
 19 23  1  0  0  0  0
 20 21  2  0  0  0  0
 21 22  1  0  0  0  0
 22 23  1  0  0  0  0
 22 58  1  0  0  0  0
 22 91  1  1  0  0  0
 23 59  1  0  0  0  0
 23 92  1  6  0  0  0
 24 25  1  0  0  0  0
 24 28  1  0  0  0  0
 25 26  2  0  0  0  0
 26 27  1  0  0  0  0
 27 28  1  0  0  0  0
 27 47  1  0  0  0  0
 27 93  1  6  0  0  0
 28 46  1  0  0  0  0
 28 94  1  1  0  0  0
 29 30  1  0  0  0  0
 29 95  1  0  0  0  0
 29 96  1  0  0  0  0
 30 31  2  0  0  0  0
 30 35  1  0  0  0  0
 31 32  1  0  0  0  0
 31 97  1  0  0  0  0
 32 33  2  0  0  0  0
 32 98  1  0  0  0  0
 33 34  1  0  0  0  0
 34 35  2  0  0  0  0
 34 99  1  0  0  0  0
 35100  1  0  0  0  0
 36 33  1  1  0  0  0
 36 37  1  0  0  0  0
 36 43  1  0  0  0  0
 36 45  1  0  0  0  0
 37 38  1  0  0  0  0
 37101  1  0  0  0  0
 37102  1  0  0  0  0
 38 39  1  0  0  0  0
 38 44  1  0  0  0  0
 38103  1  1  0  0  0
 39 40  1  0  0  0  0
 39104  1  0  0  0  0
 39105  1  0  0  0  0
 40 41  1  0  0  0  0
 40 45  1  0  0  0  0
 40106  1  6  0  0  0
 41 42  1  0  0  0  0
 41107  1  0  0  0  0
 41108  1  0  0  0  0
 42 43  1  0  0  0  0
 42 44  1  0  0  0  0
 42109  1  6  0  0  0
 43110  1  0  0  0  0
 43111  1  0  0  0  0
 44112  1  0  0  0  0
 44113  1  0  0  0  0
 45114  1  0  0  0  0
 45115  1  0  0  0  0
 46 48  2  0  0  0  0
 46 52  1  0  0  0  0
 47 53  2  0  0  0  0
 47 57  1  0  0  0  0
 48 49  1  0  0  0  0
 48116  1  0  0  0  0
 49 50  2  0  0  0  0
 49117  1  0  0  0  0
 50 51  1  0  0  0  0
 50118  1  0  0  0  0
 51 52  2  0  0  0  0
 51119  1  0  0  0  0
 52120  1  0  0  0  0
 53 54  1  0  0  0  0
 53121  1  0  0  0  0
 54 55  2  0  0  0  0
 54122  1  0  0  0  0
 55 56  1  0  0  0  0
 55123  1  0  0  0  0
 56 57  2  0  0  0  0
 56124  1  0  0  0  0
 57125  1  0  0  0  0
 58 65  2  0  0  0  0
 58 69  1  0  0  0  0
 59 60  2  0  0  0  0
 59 64  1  0  0  0  0
 60 61  1  0  0  0  0
 60126  1  0  0  0  0
 61 62  2  0  0  0  0
 61127  1  0  0  0  0
 62 63  1  0  0  0  0
 62128  1  0  0  0  0
 63 64  2  0  0  0  0
 63129  1  0  0  0  0
 64130  1  0  0  0  0
 65 66  1  0  0  0  0
 65131  1  0  0  0  0
 66 67  2  0  0  0  0
 66132  1  0  0  0  0
 67 68  1  0  0  0  0
 67133  1  0  0  0  0
 68 69  2  0  0  0  0
 68134  1  0  0  0  0
 69135  1  0  0  0  0
M  END
$$$$
