Title Card Required
 OpenBabel03192317423D

 90 95  0  0  0  0  0  0  0  0999 V2000
   -2.4569    2.3067    1.6702 C   0  0  0  0  0  0  0  0  0  0  0  0
   -1.1077    2.3060    1.2167 C   0  0  0  0  0  0  0  0  0  0  0  0
   -0.6954    1.3281    0.2672 C   0  0  0  0  0  0  0  0  0  0  0  0
   -1.5918    0.3655   -0.1742 C   0  0  0  0  0  0  0  0  0  0  0  0
   -2.9460    0.3330    0.2826 C   0  0  0  0  0  0  0  0  0  0  0  0
   -3.3381    1.3179    1.1709 C   0  0  0  0  0  0  0  0  0  0  0  0
    0.6952    1.3281   -0.2670 C   0  0  0  0  0  0  0  0  0  0  0  0
    1.1074    2.3058   -1.2168 C   0  0  0  0  0  0  0  0  0  0  0  0
    2.4566    2.3064   -1.6704 C   0  0  0  0  0  0  0  0  0  0  0  0
    3.3379    1.3177   -1.1710 C   0  0  0  0  0  0  0  0  0  0  0  0
    2.9459    0.3331   -0.2824 C   0  0  0  0  0  0  0  0  0  0  0  0
    1.5917    0.3656    0.1746 C   0  0  0  0  0  0  0  0  0  0  0  0
   -2.8832    3.2906    2.6037 C   0  0  0  0  0  0  0  0  0  0  0  0
   -2.0071    4.2342    3.0782 C   0  0  0  0  0  0  0  0  0  0  0  0
   -0.6599    4.2313    2.6345 C   0  0  0  0  0  0  0  0  0  0  0  0
   -0.2196    3.2967    1.7294 C   0  0  0  0  0  0  0  0  0  0  0  0
    0.2193    3.2964   -1.7296 C   0  0  0  0  0  0  0  0  0  0  0  0
    0.6595    4.2308   -2.6349 C   0  0  0  0  0  0  0  0  0  0  0  0
    2.0067    4.2336   -3.0788 C   0  0  0  0  0  0  0  0  0  0  0  0
    2.8828    3.2901   -2.6042 C   0  0  0  0  0  0  0  0  0  0  0  0
   -4.0923   -0.6966   -0.0358 B   0  0  0  0  0  0  0  0  0  0  0  0
    4.0922   -0.6966    0.0361 B   0  0  0  0  0  0  0  0  0  0  0  0
    5.3503   -0.2726    0.3799 O   0  0  0  0  0  0  0  0  0  0  0  0
    6.2733   -1.3200    0.0440 C   0  0  0  0  0  0  0  0  0  0  0  0
    5.3525   -2.5917    0.0215 C   0  0  0  0  0  0  0  0  0  0  0  0
    4.0701   -2.0275   -0.3057 O   0  0  0  0  0  0  0  0  0  0  0  0
   -5.3505   -0.2727   -0.3795 O   0  0  0  0  0  0  0  0  0  0  0  0
   -6.2734   -1.3202   -0.0438 C   0  0  0  0  0  0  0  0  0  0  0  0
   -5.3525   -2.5919   -0.0216 C   0  0  0  0  0  0  0  0  0  0  0  0
   -4.0701   -2.0276    0.3058 O   0  0  0  0  0  0  0  0  0  0  0  0
    5.2362   -3.2638    1.3865 C   0  0  0  0  0  0  0  0  0  0  0  0
    5.7167   -3.6184   -1.0387 C   0  0  0  0  0  0  0  0  0  0  0  0
    7.3835   -1.3570    1.0799 C   0  0  0  0  0  0  0  0  0  0  0  0
    6.8393   -0.9803   -1.3328 C   0  0  0  0  0  0  0  0  0  0  0  0
   -5.2361   -3.2636   -1.3867 C   0  0  0  0  0  0  0  0  0  0  0  0
   -5.7166   -3.6188    1.0384 C   0  0  0  0  0  0  0  0  0  0  0  0
   -7.3836   -1.3570   -1.0796 C   0  0  0  0  0  0  0  0  0  0  0  0
   -6.8394   -0.9808    1.3331 C   0  0  0  0  0  0  0  0  0  0  0  0
    1.0784   -0.4851    1.1079 O   0  0  0  0  0  0  0  0  0  0  0  0
    1.8320   -1.5358    1.6312 C   0  0  0  0  0  0  0  0  0  0  0  0
    3.0278   -1.1094    2.2002 O   0  0  0  0  0  0  0  0  0  0  0  0
    2.8930   -0.1224    3.1988 C   0  0  0  0  0  0  0  0  0  0  0  0
   -1.0783   -0.4856   -1.1072 O   0  0  0  0  0  0  0  0  0  0  0  0
   -1.8318   -1.5362   -1.6308 C   0  0  0  0  0  0  0  0  0  0  0  0
   -3.0273   -1.1095   -2.2003 O   0  0  0  0  0  0  0  0  0  0  0  0
   -2.8916   -0.1228   -3.1992 C   0  0  0  0  0  0  0  0  0  0  0  0
   -4.3781    1.3368    1.5091 H   0  0  0  0  0  0  0  0  0  0  0  0
    4.3778    1.3366   -1.5093 H   0  0  0  0  0  0  0  0  0  0  0  0
   -3.9235    3.2771    2.9369 H   0  0  0  0  0  0  0  0  0  0  0  0
   -2.3416    4.9854    3.7950 H   0  0  0  0  0  0  0  0  0  0  0  0
    0.0342    4.9816    3.0169 H   0  0  0  0  0  0  0  0  0  0  0  0
    0.8177    3.3034    1.3903 H   0  0  0  0  0  0  0  0  0  0  0  0
   -0.8179    3.3031   -1.3904 H   0  0  0  0  0  0  0  0  0  0  0  0
   -0.0346    4.9810   -3.0175 H   0  0  0  0  0  0  0  0  0  0  0  0
    2.3412    4.9847   -3.7958 H   0  0  0  0  0  0  0  0  0  0  0  0
    3.9231    3.2766   -2.9374 H   0  0  0  0  0  0  0  0  0  0  0  0
    6.1745   -3.7645    1.6636 H   0  0  0  0  0  0  0  0  0  0  0  0
    4.9645   -2.5344    2.1596 H   0  0  0  0  0  0  0  0  0  0  0  0
    4.4397   -4.0202    1.3382 H   0  0  0  0  0  0  0  0  0  0  0  0
    5.6505   -3.1932   -2.0472 H   0  0  0  0  0  0  0  0  0  0  0  0
    6.7362   -3.9986   -0.8762 H   0  0  0  0  0  0  0  0  0  0  0  0
    5.0196   -4.4657   -0.9795 H   0  0  0  0  0  0  0  0  0  0  0  0
    8.0676   -2.1968    0.8876 H   0  0  0  0  0  0  0  0  0  0  0  0
    7.9599   -0.4228    1.0307 H   0  0  0  0  0  0  0  0  0  0  0  0
    6.9753   -1.4548    2.0929 H   0  0  0  0  0  0  0  0  0  0  0  0
    7.3011    0.0157   -1.2859 H   0  0  0  0  0  0  0  0  0  0  0  0
    7.5990   -1.7067   -1.6531 H   0  0  0  0  0  0  0  0  0  0  0  0
    6.0377   -0.9531   -2.0858 H   0  0  0  0  0  0  0  0  0  0  0  0
   -6.1744   -3.7644   -1.6640 H   0  0  0  0  0  0  0  0  0  0  0  0
   -4.9645   -2.5341   -2.1596 H   0  0  0  0  0  0  0  0  0  0  0  0
   -4.4395   -4.0200   -1.3386 H   0  0  0  0  0  0  0  0  0  0  0  0
   -5.6506   -3.1938    2.0471 H   0  0  0  0  0  0  0  0  0  0  0  0
   -6.7361   -3.9991    0.8758 H   0  0  0  0  0  0  0  0  0  0  0  0
   -5.0195   -4.4660    0.9791 H   0  0  0  0  0  0  0  0  0  0  0  0
   -8.0676   -2.1969   -0.8875 H   0  0  0  0  0  0  0  0  0  0  0  0
   -7.9600   -0.4229   -1.0303 H   0  0  0  0  0  0  0  0  0  0  0  0
   -6.9754   -1.4546   -2.0927 H   0  0  0  0  0  0  0  0  0  0  0  0
   -7.3013    0.0151    1.2864 H   0  0  0  0  0  0  0  0  0  0  0  0
   -7.5990   -1.7074    1.6533 H   0  0  0  0  0  0  0  0  0  0  0  0
   -6.0378   -0.9538    2.0861 H   0  0  0  0  0  0  0  0  0  0  0  0
    1.1761   -1.9951    2.3893 H   0  0  0  0  0  0  0  0  0  0  0  0
    2.1094   -2.2622    0.8544 H   0  0  0  0  0  0  0  0  0  0  0  0
    2.4863    0.8146    2.7867 H   0  0  0  0  0  0  0  0  0  0  0  0
    2.2290   -0.4736    4.0071 H   0  0  0  0  0  0  0  0  0  0  0  0
    3.8953    0.0635    3.6014 H   0  0  0  0  0  0  0  0  0  0  0  0
   -1.1757   -1.9956   -2.3885 H   0  0  0  0  0  0  0  0  0  0  0  0
   -2.1097   -2.2625   -0.8541 H   0  0  0  0  0  0  0  0  0  0  0  0
   -2.4857    0.8144   -2.7869 H   0  0  0  0  0  0  0  0  0  0  0  0
   -2.2265   -0.4741   -4.0066 H   0  0  0  0  0  0  0  0  0  0  0  0
   -3.8935    0.0626   -3.6031 H   0  0  0  0  0  0  0  0  0  0  0  0
  1  2  1  0  0  0  0
  1  6  2  0  0  0  0
  1 13  1  0  0  0  0
  2  3  2  0  0  0  0
  2 16  1  0  0  0  0
  3  4  1  0  0  0  0
  3  7  1  0  0  0  0
  4  5  2  0  0  0  0
  4 43  1  0  0  0  0
  5  6  1  0  0  0  0
  5 21  1  0  0  0  0
  6 47  1  0  0  0  0
  7  8  2  0  0  0  0
  7 12  1  0  0  0  0
  8  9  1  0  0  0  0
  8 17  1  0  0  0  0
  9 10  2  0  0  0  0
  9 20  1  0  0  0  0
 10 11  1  0  0  0  0
 10 48  1  0  0  0  0
 11 12  2  0  0  0  0
 11 22  1  0  0  0  0
 12 39  1  0  0  0  0
 13 14  2  0  0  0  0
 13 49  1  0  0  0  0
 14 15  1  0  0  0  0
 14 50  1  0  0  0  0
 15 16  2  0  0  0  0
 15 51  1  0  0  0  0
 16 52  1  0  0  0  0
 17 18  2  0  0  0  0
 17 53  1  0  0  0  0
 18 19  1  0  0  0  0
 18 54  1  0  0  0  0
 19 20  2  0  0  0  0
 19 55  1  0  0  0  0
 20 56  1  0  0  0  0
 21 27  1  0  0  0  0
 21 30  1  0  0  0  0
 22 23  1  0  0  0  0
 22 26  1  0  0  0  0
 23 24  1  0  0  0  0
 24 25  1  0  0  0  0
 24 33  1  0  0  0  0
 24 34  1  0  0  0  0
 25 26  1  0  0  0  0
 25 31  1  0  0  0  0
 25 32  1  0  0  0  0
 27 28  1  0  0  0  0
 28 29  1  0  0  0  0
 28 37  1  0  0  0  0
 28 38  1  0  0  0  0
 29 30  1  0  0  0  0
 29 35  1  0  0  0  0
 29 36  1  0  0  0  0
 31 57  1  0  0  0  0
 31 58  1  0  0  0  0
 31 59  1  0  0  0  0
 32 60  1  0  0  0  0
 32 61  1  0  0  0  0
 32 62  1  0  0  0  0
 33 63  1  0  0  0  0
 33 64  1  0  0  0  0
 33 65  1  0  0  0  0
 34 66  1  0  0  0  0
 34 67  1  0  0  0  0
 34 68  1  0  0  0  0
 35 69  1  0  0  0  0
 35 70  1  0  0  0  0
 35 71  1  0  0  0  0
 36 72  1  0  0  0  0
 36 73  1  0  0  0  0
 36 74  1  0  0  0  0
 37 75  1  0  0  0  0
 37 76  1  0  0  0  0
 37 77  1  0  0  0  0
 38 78  1  0  0  0  0
 38 79  1  0  0  0  0
 38 80  1  0  0  0  0
 39 40  1  0  0  0  0
 40 41  1  0  0  0  0
 40 81  1  0  0  0  0
 40 82  1  0  0  0  0
 41 42  1  0  0  0  0
 42 83  1  0  0  0  0
 42 84  1  0  0  0  0
 42 85  1  0  0  0  0
 43 44  1  0  0  0  0
 44 45  1  0  0  0  0
 44 86  1  0  0  0  0
 44 87  1  0  0  0  0
 45 46  1  0  0  0  0
 46 88  1  0  0  0  0
 46 89  1  0  0  0  0
 46 90  1  0  0  0  0
M  END
$$$$
