Title Card Required
 OpenBabel03192317523D

 53 56  0  0  1  0  0  0  0  0999 V2000
   -1.1677   -1.8432   -1.1651 O   0  0  0  0  0  0  0  0  0  0  0  0
   -0.7639   -1.0851   -0.1197 C   0  0  0  0  0  0  0  0  0  0  0  0
   -0.8013   -1.5945    1.0370 N   0  0  0  0  0  0  0  0  0  0  0  0
   -1.1917   -2.9965    0.8777 C   0  0  1  0  0  0  0  0  0  0  0  0
   -1.5217   -3.1186   -0.6320 C   0  0  0  0  0  0  0  0  0  0  0  0
   -0.3392    0.3137   -0.4844 C   0  0  0  0  0  0  0  0  0  0  0  0
    2.6040    1.1107   -2.4480 C   0  0  0  0  0  0  0  0  0  0  0  0
    2.8251   -0.4060   -2.2049 C   0  0  2  0  0  0  0  0  0  0  0  0
    1.6293   -0.8230   -1.4691 N   0  0  0  0  0  0  0  0  0  0  0  0
    0.9139    0.2060   -1.3126 C   0  0  0  0  0  0  0  0  0  0  0  0
    1.3298    1.3758   -1.8543 O   0  0  0  0  0  0  0  0  0  0  0  0
    4.0769   -0.7131   -1.3956 C   0  0  0  0  0  0  0  0  0  0  0  0
   -0.0502   -3.9047    1.3173 C   0  0  0  0  0  0  0  0  0  0  0  0
   -1.4576    0.9869   -1.3283 C   0  0  0  0  0  0  0  0  0  0  0  0
   -2.7669    1.1213   -0.5899 C   0  0  0  0  0  0  0  0  0  0  0  0
   -3.0929    2.2948    0.0991 C   0  0  0  0  0  0  0  0  0  0  0  0
   -4.2924    2.4026    0.8021 C   0  0  0  0  0  0  0  0  0  0  0  0
   -5.1895    1.3363    0.8223 C   0  0  0  0  0  0  0  0  0  0  0  0
   -4.8813    0.1648    0.1315 C   0  0  0  0  0  0  0  0  0  0  0  0
   -3.6806    0.0598   -0.5674 C   0  0  0  0  0  0  0  0  0  0  0  0
   -0.0125    1.1576    0.7818 C   0  0  0  0  0  0  0  0  0  0  0  0
    1.4047    1.0315    1.2991 C   0  0  0  0  0  0  0  0  0  0  0  0
    2.3488    2.0161    0.9812 C   0  0  0  0  0  0  0  0  0  0  0  0
    3.6628    1.9281    1.4409 C   0  0  0  0  0  0  0  0  0  0  0  0
    4.0558    0.8433    2.2237 C   0  0  0  0  0  0  0  0  0  0  0  0
    3.1253   -0.1459    2.5413 C   0  0  0  0  0  0  0  0  0  0  0  0
    1.8112   -0.0540    2.0850 C   0  0  0  0  0  0  0  0  0  0  0  0
   -2.0803   -3.1936    1.4972 H   0  0  0  0  0  0  0  0  0  0  0  0
   -0.9243   -3.8900   -1.1388 H   0  0  0  0  0  0  0  0  0  0  0  0
   -2.5883   -3.2998   -0.8311 H   0  0  0  0  0  0  0  0  0  0  0  0
    3.3609    1.7283   -1.9393 H   0  0  0  0  0  0  0  0  0  0  0  0
    2.5615    1.3883   -3.5098 H   0  0  0  0  0  0  0  0  0  0  0  0
    2.8602   -0.9577   -3.1581 H   0  0  0  0  0  0  0  0  0  0  0  0
    4.1442   -1.7905   -1.1957 H   0  0  0  0  0  0  0  0  0  0  0  0
    4.9814   -0.3969   -1.9367 H   0  0  0  0  0  0  0  0  0  0  0  0
    4.0342   -0.1839   -0.4313 H   0  0  0  0  0  0  0  0  0  0  0  0
    0.1878   -3.7354    2.3761 H   0  0  0  0  0  0  0  0  0  0  0  0
   -0.3150   -4.9637    1.1817 H   0  0  0  0  0  0  0  0  0  0  0  0
    0.8462   -3.6805    0.7193 H   0  0  0  0  0  0  0  0  0  0  0  0
   -1.0860    1.9742   -1.6348 H   0  0  0  0  0  0  0  0  0  0  0  0
   -1.6031    0.3859   -2.2370 H   0  0  0  0  0  0  0  0  0  0  0  0
   -2.4019    3.1407    0.0763 H   0  0  0  0  0  0  0  0  0  0  0  0
   -4.5292    3.3268    1.3317 H   0  0  0  0  0  0  0  0  0  0  0  0
   -6.1302    1.4204    1.3686 H   0  0  0  0  0  0  0  0  0  0  0  0
   -5.5831   -0.6708    0.1318 H   0  0  0  0  0  0  0  0  0  0  0  0
   -3.4430   -0.8518   -1.1199 H   0  0  0  0  0  0  0  0  0  0  0  0
   -0.1884    2.2119    0.5261 H   0  0  0  0  0  0  0  0  0  0  0  0
   -0.7336    0.8770    1.5612 H   0  0  0  0  0  0  0  0  0  0  0  0
    2.0442    2.8649    0.3640 H   0  0  0  0  0  0  0  0  0  0  0  0
    4.3796    2.7125    1.1907 H   0  0  0  0  0  0  0  0  0  0  0  0
    5.0821    0.7708    2.5876 H   0  0  0  0  0  0  0  0  0  0  0  0
    3.4235   -0.9976    3.1553 H   0  0  0  0  0  0  0  0  0  0  0  0
    1.0794   -0.8255    2.3267 H   0  0  0  0  0  0  0  0  0  0  0  0
  1  2  1  0  0  0  0
  1  5  1  0  0  0  0
  2  3  2  0  0  0  0
  2  6  1  0  0  0  0
  3  4  1  0  0  0  0
  4  5  1  0  0  0  0
  4 13  1  0  0  0  0
  4 28  1  1  0  0  0
  5 29  1  0  0  0  0
  5 30  1  0  0  0  0
  6 10  1  0  0  0  0
  6 14  1  0  0  0  0
  6 21  1  0  0  0  0
  7  8  1  0  0  0  0
  7 11  1  0  0  0  0
  7 31  1  0  0  0  0
  7 32  1  0  0  0  0
  8  9  1  0  0  0  0
  8 12  1  0  0  0  0
  8 33  1  6  0  0  0
  9 10  2  0  0  0  0
 10 11  1  0  0  0  0
 12 34  1  0  0  0  0
 12 35  1  0  0  0  0
 12 36  1  0  0  0  0
 13 37  1  0  0  0  0
 13 38  1  0  0  0  0
 13 39  1  0  0  0  0
 14 15  1  0  0  0  0
 14 40  1  0  0  0  0
 14 41  1  0  0  0  0
 15 16  2  0  0  0  0
 15 20  1  0  0  0  0
 16 17  1  0  0  0  0
 16 42  1  0  0  0  0
 17 18  2  0  0  0  0
 17 43  1  0  0  0  0
 18 19  1  0  0  0  0
 18 44  1  0  0  0  0
 19 20  2  0  0  0  0
 19 45  1  0  0  0  0
 20 46  1  0  0  0  0
 21 22  1  0  0  0  0
 21 47  1  0  0  0  0
 21 48  1  0  0  0  0
 22 23  2  0  0  0  0
 22 27  1  0  0  0  0
 23 24  1  0  0  0  0
 23 49  1  0  0  0  0
 24 25  2  0  0  0  0
 24 50  1  0  0  0  0
 25 26  1  0  0  0  0
 25 51  1  0  0  0  0
 26 27  2  0  0  0  0
 26 52  1  0  0  0  0
 27 53  1  0  0  0  0
M  END
$$$$
