Title Card Required
 OpenBabel03192317433D

 27 28  0  0  1  0  0  0  0  0999 V2000
   -0.1590   -1.6259    0.0838 O   0  0  0  0  0  0  0  0  0  0  0  0
    0.2021   -0.3297    0.1836 C   0  0  0  0  0  0  0  0  0  0  0  0
   -0.6953    0.5391    0.3887 N   0  0  0  0  0  0  0  0  0  0  0  0
   -1.9644   -0.1821    0.4783 C   0  0  2  0  0  0  0  0  0  0  0  0
   -1.5863   -1.6368    0.1076 C   0  0  0  0  0  0  0  0  0  0  0  0
    1.6614   -0.0456    0.0536 C   0  0  0  0  0  0  0  0  0  0  0  0
    2.4675   -1.0879   -0.1303 N   0  0  0  0  0  0  0  0  0  0  0  0
    3.7655   -0.8239   -0.2424 C   0  0  0  0  0  0  0  0  0  0  0  0
    4.2657    0.4732   -0.1750 C   0  0  0  0  0  0  0  0  0  0  0  0
    3.3253    1.4849    0.0189 C   0  0  0  0  0  0  0  0  0  0  0  0
    2.0285    1.2321    0.1344 N   0  0  0  0  0  0  0  0  0  0  0  0
   -3.0463    0.4324   -0.4131 C   0  0  0  0  0  0  0  0  0  0  0  0
   -4.3505   -0.3522   -0.2861 C   0  0  0  0  0  0  0  0  0  0  0  0
   -3.2493    1.9069   -0.0809 C   0  0  0  0  0  0  0  0  0  0  0  0
   -2.3161   -0.1155    1.5251 H   0  0  0  0  0  0  0  0  0  0  0  0
   -1.9247   -2.3906    0.8295 H   0  0  0  0  0  0  0  0  0  0  0  0
   -1.9502   -1.9131   -0.8963 H   0  0  0  0  0  0  0  0  0  0  0  0
    4.4311   -1.6797   -0.3924 H   0  0  0  0  0  0  0  0  0  0  0  0
    5.3300    0.6858   -0.2685 H   0  0  0  0  0  0  0  0  0  0  0  0
    3.6300    2.5343    0.0830 H   0  0  0  0  0  0  0  0  0  0  0  0
   -2.6809    0.3531   -1.4529 H   0  0  0  0  0  0  0  0  0  0  0  0
   -4.7289   -0.3013    0.7477 H   0  0  0  0  0  0  0  0  0  0  0  0
   -5.1237    0.0659   -0.9462 H   0  0  0  0  0  0  0  0  0  0  0  0
   -4.2271   -1.4137   -0.5492 H   0  0  0  0  0  0  0  0  0  0  0  0
   -2.3025    2.4549   -0.1622 H   0  0  0  0  0  0  0  0  0  0  0  0
   -3.9886    2.3613   -0.7564 H   0  0  0  0  0  0  0  0  0  0  0  0
   -3.6199    2.0195    0.9508 H   0  0  0  0  0  0  0  0  0  0  0  0
  1  2  1  0  0  0  0
  1  5  1  0  0  0  0
  2  3  2  0  0  0  0
  2  6  1  0  0  0  0
  3  4  1  0  0  0  0
  4  5  1  0  0  0  0
  4 12  1  0  0  0  0
  4 15  1  1  0  0  0
  5 16  1  0  0  0  0
  5 17  1  0  0  0  0
  6  7  2  0  0  0  0
  6 11  1  0  0  0  0
  7  8  1  0  0  0  0
  8  9  2  0  0  0  0
  8 18  1  0  0  0  0
  9 10  1  0  0  0  0
  9 19  1  0  0  0  0
 10 11  2  0  0  0  0
 10 20  1  0  0  0  0
 12 13  1  0  0  0  0
 12 14  1  0  0  0  0
 12 21  1  0  0  0  0
 13 22  1  0  0  0  0
 13 23  1  0  0  0  0
 13 24  1  0  0  0  0
 14 25  1  0  0  0  0
 14 26  1  0  0  0  0
 14 27  1  0  0  0  0
M  END
$$$$
