Title Card Required
 OpenBabel03192317523D

 71 74  0  0  1  0  0  0  0  0999 V2000
    0.8975   -0.1386   -1.9061 O   0  0  0  0  0  0  0  0  0  0  0  0
    0.7563   -0.3275   -0.5732 C   0  0  0  0  0  0  0  0  0  0  0  0
    1.2254   -1.3879   -0.0705 N   0  0  0  0  0  0  0  0  0  0  0  0
    1.7548   -2.1957   -1.1663 C   0  0  1  0  0  0  0  0  0  0  0  0
    1.6287   -1.2662   -2.3998 C   0  0  0  0  0  0  0  0  0  0  0  0
    0.0363    0.7510    0.2121 C   0  0  0  0  0  0  0  0  0  0  0  0
   -3.3200    0.2813    1.5119 C   0  0  0  0  0  0  0  0  0  0  0  0
   -3.1623   -1.0062    0.6682 C   0  0  1  0  0  0  0  0  0  0  0  0
   -1.8737   -0.8133    0.0016 N   0  0  0  0  0  0  0  0  0  0  0  0
   -1.3207    0.1805    0.5516 C   0  0  0  0  0  0  0  0  0  0  0  0
   -2.0091    0.8550    1.5015 O   0  0  0  0  0  0  0  0  0  0  0  0
   -3.1616   -2.3292    1.4744 C   0  0  0  0  0  0  0  0  0  0  0  0
    3.1673   -2.7427   -0.8747 C   0  0  0  0  0  0  0  0  0  0  0  0
    3.0702   -3.6857    0.3283 C   0  0  0  0  0  0  0  0  0  0  0  0
    3.6581   -3.5214   -2.0984 C   0  0  0  0  0  0  0  0  0  0  0  0
    4.1353   -1.6049   -0.5431 C   0  0  0  0  0  0  0  0  0  0  0  0
   -4.5274   -2.5117    2.1423 C   0  0  0  0  0  0  0  0  0  0  0  0
   -2.9133   -3.4857    0.5017 C   0  0  0  0  0  0  0  0  0  0  0  0
   -2.0504   -2.3088    2.5286 C   0  0  0  0  0  0  0  0  0  0  0  0
    0.8027    1.0100    1.5276 C   0  0  0  0  0  0  0  0  0  0  0  0
    2.0967    1.7875    1.4128 C   0  0  0  0  0  0  0  0  0  0  0  0
    2.9339    1.7476    0.2904 C   0  0  0  0  0  0  0  0  0  0  0  0
    4.1354    2.4561    0.2673 C   0  0  0  0  0  0  0  0  0  0  0  0
    4.5261    3.2198    1.3650 C   0  0  0  0  0  0  0  0  0  0  0  0
    3.7003    3.2741    2.4870 C   0  0  0  0  0  0  0  0  0  0  0  0
    2.5002    2.5680    2.5041 C   0  0  0  0  0  0  0  0  0  0  0  0
   -0.1755    2.0839   -0.5807 C   0  0  0  0  0  0  0  0  0  0  0  0
   -1.4954    2.1944   -1.3101 C   0  0  0  0  0  0  0  0  0  0  0  0
   -2.5538    2.9001   -0.7267 C   0  0  0  0  0  0  0  0  0  0  0  0
   -3.7958    2.9811   -1.3554 C   0  0  0  0  0  0  0  0  0  0  0  0
   -3.9975    2.3534   -2.5837 C   0  0  0  0  0  0  0  0  0  0  0  0
   -2.9482    1.6512   -3.1764 C   0  0  0  0  0  0  0  0  0  0  0  0
   -1.7084    1.5711   -2.5453 C   0  0  0  0  0  0  0  0  0  0  0  0
    1.0893   -3.0691   -1.2863 H   0  0  0  0  0  0  0  0  0  0  0  0
    2.5985   -0.9095   -2.7787 H   0  0  0  0  0  0  0  0  0  0  0  0
    1.0661   -1.7142   -3.2282 H   0  0  0  0  0  0  0  0  0  0  0  0
   -4.0121    1.0009    1.0489 H   0  0  0  0  0  0  0  0  0  0  0  0
   -3.6151    0.1075    2.5548 H   0  0  0  0  0  0  0  0  0  0  0  0
   -3.9571   -1.0761   -0.0914 H   0  0  0  0  0  0  0  0  0  0  0  0
    2.4018   -4.5329    0.1092 H   0  0  0  0  0  0  0  0  0  0  0  0
    4.0615   -4.0899    0.5836 H   0  0  0  0  0  0  0  0  0  0  0  0
    2.6690   -3.1510    1.1999 H   0  0  0  0  0  0  0  0  0  0  0  0
    3.7745   -2.8705   -2.9791 H   0  0  0  0  0  0  0  0  0  0  0  0
    4.6382   -3.9780   -1.8944 H   0  0  0  0  0  0  0  0  0  0  0  0
    2.9570   -4.3298   -2.3596 H   0  0  0  0  0  0  0  0  0  0  0  0
    4.2445   -0.8946   -1.3782 H   0  0  0  0  0  0  0  0  0  0  0  0
    3.7911   -1.0449    0.3387 H   0  0  0  0  0  0  0  0  0  0  0  0
    5.1351   -2.0108   -0.3267 H   0  0  0  0  0  0  0  0  0  0  0  0
   -5.3366   -2.5012    1.3951 H   0  0  0  0  0  0  0  0  0  0  0  0
   -4.5674   -3.4769    2.6691 H   0  0  0  0  0  0  0  0  0  0  0  0
   -4.7348   -1.7246    2.8832 H   0  0  0  0  0  0  0  0  0  0  0  0
   -1.9480   -3.3560   -0.0057 H   0  0  0  0  0  0  0  0  0  0  0  0
   -2.9074   -4.4451    1.0411 H   0  0  0  0  0  0  0  0  0  0  0  0
   -3.7021   -3.5304   -0.2655 H   0  0  0  0  0  0  0  0  0  0  0  0
   -1.0634   -2.2250    2.0490 H   0  0  0  0  0  0  0  0  0  0  0  0
   -2.1657   -1.4694    3.2330 H   0  0  0  0  0  0  0  0  0  0  0  0
   -2.0679   -3.2392    3.1162 H   0  0  0  0  0  0  0  0  0  0  0  0
    0.1266    1.5529    2.2017 H   0  0  0  0  0  0  0  0  0  0  0  0
    1.0060    0.0304    1.9895 H   0  0  0  0  0  0  0  0  0  0  0  0
    2.6527    1.1657   -0.5889 H   0  0  0  0  0  0  0  0  0  0  0  0
    4.7689    2.4112   -0.6204 H   0  0  0  0  0  0  0  0  0  0  0  0
    5.4649    3.7750    1.3442 H   0  0  0  0  0  0  0  0  0  0  0  0
    3.9886    3.8739    3.3520 H   0  0  0  0  0  0  0  0  0  0  0  0
    1.8564    2.6184    3.3855 H   0  0  0  0  0  0  0  0  0  0  0  0
   -0.1047    2.9065    0.1450 H   0  0  0  0  0  0  0  0  0  0  0  0
    0.6550    2.2084   -1.2867 H   0  0  0  0  0  0  0  0  0  0  0  0
   -2.4005    3.3860    0.2397 H   0  0  0  0  0  0  0  0  0  0  0  0
   -4.6065    3.5414   -0.8856 H   0  0  0  0  0  0  0  0  0  0  0  0
   -4.9671    2.4163   -3.0804 H   0  0  0  0  0  0  0  0  0  0  0  0
   -3.0967    1.1603   -4.1398 H   0  0  0  0  0  0  0  0  0  0  0  0
   -0.8928    1.0088   -3.0013 H   0  0  0  0  0  0  0  0  0  0  0  0
  1  2  1  0  0  0  0
  1  5  1  0  0  0  0
  2  3  2  0  0  0  0
  2  6  1  0  0  0  0
  3  4  1  0  0  0  0
  4  5  1  0  0  0  0
  4 13  1  0  0  0  0
  4 34  1  6  0  0  0
  5 35  1  0  0  0  0
  5 36  1  0  0  0  0
  6 10  1  0  0  0  0
  6 20  1  0  0  0  0
  6 27  1  0  0  0  0
  7  8  1  0  0  0  0
  7 11  1  0  0  0  0
  7 37  1  0  0  0  0
  7 38  1  0  0  0  0
  8  9  1  0  0  0  0
  8 12  1  0  0  0  0
  8 39  1  6  0  0  0
  9 10  2  0  0  0  0
 10 11  1  0  0  0  0
 12 17  1  0  0  0  0
 12 18  1  0  0  0  0
 12 19  1  0  0  0  0
 13 14  1  0  0  0  0
 13 15  1  0  0  0  0
 13 16  1  0  0  0  0
 14 40  1  0  0  0  0
 14 41  1  0  0  0  0
 14 42  1  0  0  0  0
 15 43  1  0  0  0  0
 15 44  1  0  0  0  0
 15 45  1  0  0  0  0
 16 46  1  0  0  0  0
 16 47  1  0  0  0  0
 16 48  1  0  0  0  0
 17 49  1  0  0  0  0
 17 50  1  0  0  0  0
 17 51  1  0  0  0  0
 18 52  1  0  0  0  0
 18 53  1  0  0  0  0
 18 54  1  0  0  0  0
 19 55  1  0  0  0  0
 19 56  1  0  0  0  0
 19 57  1  0  0  0  0
 20 21  1  0  0  0  0
 20 58  1  0  0  0  0
 20 59  1  0  0  0  0
 21 22  2  0  0  0  0
 21 26  1  0  0  0  0
 22 23  1  0  0  0  0
 22 60  1  0  0  0  0
 23 24  2  0  0  0  0
 23 61  1  0  0  0  0
 24 25  1  0  0  0  0
 24 62  1  0  0  0  0
 25 26  2  0  0  0  0
 25 63  1  0  0  0  0
 26 64  1  0  0  0  0
 27 28  1  0  0  0  0
 27 65  1  0  0  0  0
 27 66  1  0  0  0  0
 28 29  2  0  0  0  0
 28 33  1  0  0  0  0
 29 30  1  0  0  0  0
 29 67  1  0  0  0  0
 30 31  2  0  0  0  0
 30 68  1  0  0  0  0
 31 32  1  0  0  0  0
 31 69  1  0  0  0  0
 32 33  2  0  0  0  0
 32 70  1  0  0  0  0
 33 71  1  0  0  0  0
M  END
$$$$
