Title Card Required
 OpenBabel03192317543D

 66 69  0  0  1  0  0  0  0  0999 V2000
    3.3372   -2.2609   -1.9393 C   0  0  0  0  0  0  0  0  0  0  0  0
    1.8471   -2.5363   -2.0804 C   0  0  0  0  0  0  0  0  0  0  0  0
    3.6964   -1.3332   -0.7855 C   0  0  2  0  0  0  0  0  0  0  0  0
    3.3853   -1.9623    0.4624 O   0  0  0  0  0  0  0  0  0  0  0  0
    2.3105   -1.4331    1.0831 C   0  0  0  0  0  0  0  0  0  0  0  0
    1.7469   -0.2667    0.5356 C   0  0  0  0  0  0  0  0  0  0  0  0
    2.8334    0.3484   -0.8215 P   0  0  1  0  0  0  0  0  0  0  0  0
    0.5263    0.2120    1.0596 C   0  0  0  0  0  0  0  0  0  0  0  0
   -0.3210    1.2387    0.3763 C   0  0  0  0  0  0  0  0  0  0  0  0
   -1.7177    1.0620    0.2687 C   0  0  0  0  0  0  0  0  0  0  0  0
   -2.4878    2.0374   -0.3870 C   0  0  0  0  0  0  0  0  0  0  0  0
   -1.9210    3.1762   -0.9556 C   0  0  0  0  0  0  0  0  0  0  0  0
   -0.5440    3.3336   -0.8560 C   0  0  0  0  0  0  0  0  0  0  0  0
    0.2405    2.3859   -0.1994 C   0  0  0  0  0  0  0  0  0  0  0  0
    0.0359   -0.3813    2.2344 C   0  0  0  0  0  0  0  0  0  0  0  0
    0.6690   -1.4785    2.8136 C   0  0  0  0  0  0  0  0  0  0  0  0
    1.7932   -2.0465    2.2224 C   0  0  0  0  0  0  0  0  0  0  0  0
   -2.8048   -0.3656    0.7356 P   0  0  1  0  0  0  0  0  0  0  0  0
   -4.2383    0.8296    0.4553 C   0  0  1  0  0  0  0  0  0  0  0  0
   -3.8189    1.8218   -0.4778 O   0  0  0  0  0  0  0  0  0  0  0  0
   -5.6023    0.2942    0.0652 C   0  0  0  0  0  0  0  0  0  0  0  0
   -6.1983   -0.6102    1.1381 C   0  0  0  0  0  0  0  0  0  0  0  0
    4.1717    1.3282    0.1497 C   0  0  0  0  0  0  0  0  0  0  0  0
    5.2953    1.5843   -0.8632 C   0  0  0  0  0  0  0  0  0  0  0  0
    3.6086    2.6785    0.5989 C   0  0  0  0  0  0  0  0  0  0  0  0
    4.7215    0.6062    1.3814 C   0  0  0  0  0  0  0  0  0  0  0  0
   -2.6819   -1.4109   -0.8475 C   0  0  0  0  0  0  0  0  0  0  0  0
   -1.2690   -2.0058   -0.8353 C   0  0  0  0  0  0  0  0  0  0  0  0
   -3.6976   -2.5535   -0.7264 C   0  0  0  0  0  0  0  0  0  0  0  0
   -2.8839   -0.6406   -2.1531 C   0  0  0  0  0  0  0  0  0  0  0  0
    3.7321   -1.8100   -2.8641 H   0  0  0  0  0  0  0  0  0  0  0  0
    3.8834   -3.2055   -1.7845 H   0  0  0  0  0  0  0  0  0  0  0  0
    1.4311   -2.9447   -1.1471 H   0  0  0  0  0  0  0  0  0  0  0  0
    1.2941   -1.6159   -2.3223 H   0  0  0  0  0  0  0  0  0  0  0  0
    1.6559   -3.2633   -2.8821 H   0  0  0  0  0  0  0  0  0  0  0  0
    4.7833   -1.1677   -0.7921 H   0  0  0  0  0  0  0  0  0  0  0  0
   -2.5596    3.9037   -1.4558 H   0  0  0  0  0  0  0  0  0  0  0  0
   -0.0688    4.2172   -1.2850 H   0  0  0  0  0  0  0  0  0  0  0  0
    1.3078    2.5541   -0.1137 H   0  0  0  0  0  0  0  0  0  0  0  0
   -0.8695    0.0162    2.6891 H   0  0  0  0  0  0  0  0  0  0  0  0
    0.2582   -1.9158    3.7250 H   0  0  0  0  0  0  0  0  0  0  0  0
    2.2765   -2.9386    2.6199 H   0  0  0  0  0  0  0  0  0  0  0  0
   -4.3310    1.3291    1.4411 H   0  0  0  0  0  0  0  0  0  0  0  0
   -6.2553    1.1650   -0.1030 H   0  0  0  0  0  0  0  0  0  0  0  0
   -5.5374   -0.2318   -0.8984 H   0  0  0  0  0  0  0  0  0  0  0  0
   -6.2947   -0.0756    2.0948 H   0  0  0  0  0  0  0  0  0  0  0  0
   -7.1976   -0.9603    0.8465 H   0  0  0  0  0  0  0  0  0  0  0  0
   -5.5685   -1.4943    1.3176 H   0  0  0  0  0  0  0  0  0  0  0  0
    4.9242    2.1350   -1.7408 H   0  0  0  0  0  0  0  0  0  0  0  0
    6.0872    2.1876   -0.3907 H   0  0  0  0  0  0  0  0  0  0  0  0
    5.7625    0.6532   -1.2180 H   0  0  0  0  0  0  0  0  0  0  0  0
    2.8020    2.5555    1.3374 H   0  0  0  0  0  0  0  0  0  0  0  0
    4.4109    3.2615    1.0793 H   0  0  0  0  0  0  0  0  0  0  0  0
    3.2324    3.2699   -0.2495 H   0  0  0  0  0  0  0  0  0  0  0  0
    3.9280    0.4081    2.1174 H   0  0  0  0  0  0  0  0  0  0  0  0
    5.2051   -0.3494    1.1384 H   0  0  0  0  0  0  0  0  0  0  0  0
    5.4752    1.2482    1.8668 H   0  0  0  0  0  0  0  0  0  0  0  0
   -1.0493   -2.5383    0.1047 H   0  0  0  0  0  0  0  0  0  0  0  0
   -1.1648   -2.7212   -1.6682 H   0  0  0  0  0  0  0  0  0  0  0  0
   -0.5060   -1.2257   -0.9684 H   0  0  0  0  0  0  0  0  0  0  0  0
   -4.7366   -2.1998   -0.7829 H   0  0  0  0  0  0  0  0  0  0  0  0
   -3.5464   -3.2688   -1.5514 H   0  0  0  0  0  0  0  0  0  0  0  0
   -3.5713   -3.0998    0.2212 H   0  0  0  0  0  0  0  0  0  0  0  0
   -3.8769   -0.1765   -2.2221 H   0  0  0  0  0  0  0  0  0  0  0  0
   -2.1328    0.1556   -2.2649 H   0  0  0  0  0  0  0  0  0  0  0  0
   -2.7682   -1.3320   -3.0048 H   0  0  0  0  0  0  0  0  0  0  0  0
  1  2  1  0  0  0  0
  1  3  1  0  0  0  0
  1 31  1  0  0  0  0
  1 32  1  0  0  0  0
  2 33  1  0  0  0  0
  2 34  1  0  0  0  0
  2 35  1  0  0  0  0
  3  4  1  0  0  0  0
  3  7  1  0  0  0  0
  3 36  1  6  0  0  0
  4  5  1  0  0  0  0
  5  6  2  0  0  0  0
  5 17  1  0  0  0  0
  6  7  1  0  0  0  0
  6  8  1  0  0  0  0
  7 23  1  1  0  0  0
  8  9  1  0  0  0  0
  8 15  2  0  0  0  0
  9 10  2  0  0  0  0
  9 14  1  0  0  0  0
 10 11  1  0  0  0  0
 10 18  1  0  0  0  0
 11 12  2  0  0  0  0
 11 20  1  0  0  0  0
 12 13  1  0  0  0  0
 12 37  1  0  0  0  0
 13 14  2  0  0  0  0
 13 38  1  0  0  0  0
 14 39  1  0  0  0  0
 15 16  1  0  0  0  0
 15 40  1  0  0  0  0
 16 17  2  0  0  0  0
 16 41  1  0  0  0  0
 17 42  1  0  0  0  0
 18 19  1  0  0  0  0
 18 27  1  6  0  0  0
 19 20  1  0  0  0  0
 19 21  1  0  0  0  0
 19 43  1  1  0  0  0
 21 22  1  0  0  0  0
 21 44  1  0  0  0  0
 21 45  1  0  0  0  0
 22 46  1  0  0  0  0
 22 47  1  0  0  0  0
 22 48  1  0  0  0  0
 23 24  1  0  0  0  0
 23 25  1  0  0  0  0
 23 26  1  0  0  0  0
 24 49  1  0  0  0  0
 24 50  1  0  0  0  0
 24 51  1  0  0  0  0
 25 52  1  0  0  0  0
 25 53  1  0  0  0  0
 25 54  1  0  0  0  0
 26 55  1  0  0  0  0
 26 56  1  0  0  0  0
 26 57  1  0  0  0  0
 27 28  1  0  0  0  0
 27 29  1  0  0  0  0
 27 30  1  0  0  0  0
 28 58  1  0  0  0  0
 28 59  1  0  0  0  0
 28 60  1  0  0  0  0
 29 61  1  0  0  0  0
 29 62  1  0  0  0  0
 29 63  1  0  0  0  0
 30 64  1  0  0  0  0
 30 65  1  0  0  0  0
 30 66  1  0  0  0  0
M  END
$$$$
