Title Card Required
 OpenBabel03192317443D

 51 55  0  0  1  0  0  0  0  0999 V2000
   -0.3332   -0.6688   -0.5905 C   0  0  0  0  0  0  0  0  0  0  0  0
   -0.7329   -1.8135   -1.4940 C   0  0  0  0  0  0  0  0  0  0  0  0
   -0.6107   -2.0459   -0.0310 C   0  0  0  0  0  0  0  0  0  0  0  0
    1.4094    0.7445    0.2456 O   0  0  0  0  0  0  0  0  0  0  0  0
    1.0807   -0.2299   -0.6306 C   0  0  0  0  0  0  0  0  0  0  0  0
    2.0017   -0.7338   -1.3424 N   0  0  0  0  0  0  0  0  0  0  0  0
    3.2494   -0.1066   -0.9017 C   0  0  1  0  0  0  0  0  0  0  0  0
    2.7694    1.0813   -0.0407 C   0  0  0  0  0  0  0  0  0  0  0  0
   -1.1061    1.5721   -0.9344 O   0  0  0  0  0  0  0  0  0  0  0  0
   -1.3496    0.3806   -0.3456 C   0  0  0  0  0  0  0  0  0  0  0  0
   -2.4358    0.2340    0.2908 N   0  0  0  0  0  0  0  0  0  0  0  0
   -3.1876    1.4792    0.1332 C   0  0  1  0  0  0  0  0  0  0  0  0
   -2.1672    2.4376   -0.5283 C   0  0  0  0  0  0  0  0  0  0  0  0
    4.0945   -1.1267   -0.1229 C   0  0  0  0  0  0  0  0  0  0  0  0
    5.4382   -0.5788    0.2850 C   0  0  0  0  0  0  0  0  0  0  0  0
    5.7031   -0.2094    1.6077 C   0  0  0  0  0  0  0  0  0  0  0  0
    6.9371    0.3335    1.9669 C   0  0  0  0  0  0  0  0  0  0  0  0
    7.9270    0.5163    1.0038 C   0  0  0  0  0  0  0  0  0  0  0  0
    7.6764    0.1510   -0.3195 C   0  0  0  0  0  0  0  0  0  0  0  0
    6.4432   -0.3906   -0.6731 C   0  0  0  0  0  0  0  0  0  0  0  0
   -4.4442    1.2581   -0.7220 C   0  0  0  0  0  0  0  0  0  0  0  0
   -5.4608    0.3574   -0.0677 C   0  0  0  0  0  0  0  0  0  0  0  0
   -6.5817    0.8973    0.5706 C   0  0  0  0  0  0  0  0  0  0  0  0
   -7.5093    0.0745    1.2093 C   0  0  0  0  0  0  0  0  0  0  0  0
   -7.3260   -1.3065    1.2172 C   0  0  0  0  0  0  0  0  0  0  0  0
   -6.2113   -1.8568    0.5835 C   0  0  0  0  0  0  0  0  0  0  0  0
   -5.2869   -1.0320   -0.0523 C   0  0  0  0  0  0  0  0  0  0  0  0
   -1.7338   -1.7528   -1.9233 H   0  0  0  0  0  0  0  0  0  0  0  0
    0.0608   -2.1798   -2.1460 H   0  0  0  0  0  0  0  0  0  0  0  0
    0.2601   -2.5976    0.3249 H   0  0  0  0  0  0  0  0  0  0  0  0
   -1.5212   -2.1214    0.5650 H   0  0  0  0  0  0  0  0  0  0  0  0
    3.8246    0.2362   -1.7745 H   0  0  0  0  0  0  0  0  0  0  0  0
    3.3170    1.1986    0.9038 H   0  0  0  0  0  0  0  0  0  0  0  0
    2.7848    2.0340   -0.5905 H   0  0  0  0  0  0  0  0  0  0  0  0
   -3.5009    1.8429    1.1236 H   0  0  0  0  0  0  0  0  0  0  0  0
   -2.5622    2.9524   -1.4150 H   0  0  0  0  0  0  0  0  0  0  0  0
   -1.7640    3.1811    0.1745 H   0  0  0  0  0  0  0  0  0  0  0  0
    3.5240   -1.4402    0.7661 H   0  0  0  0  0  0  0  0  0  0  0  0
    4.2151   -2.0138   -0.7621 H   0  0  0  0  0  0  0  0  0  0  0  0
    4.9332   -0.3579    2.3693 H   0  0  0  0  0  0  0  0  0  0  0  0
    7.1256    0.6112    3.0053 H   0  0  0  0  0  0  0  0  0  0  0  0
    8.8934    0.9386    1.2831 H   0  0  0  0  0  0  0  0  0  0  0  0
    8.4484    0.2852   -1.0790 H   0  0  0  0  0  0  0  0  0  0  0  0
    6.2558   -0.6819   -1.7100 H   0  0  0  0  0  0  0  0  0  0  0  0
   -4.9005    2.2399   -0.9240 H   0  0  0  0  0  0  0  0  0  0  0  0
   -4.1246    0.8410   -1.6917 H   0  0  0  0  0  0  0  0  0  0  0  0
   -6.7334    1.9797    0.5632 H   0  0  0  0  0  0  0  0  0  0  0  0
   -8.3795    0.5155    1.6981 H   0  0  0  0  0  0  0  0  0  0  0  0
   -8.0504   -1.9539    1.7137 H   0  0  0  0  0  0  0  0  0  0  0  0
   -6.0608   -2.9377    0.5857 H   0  0  0  0  0  0  0  0  0  0  0  0
   -4.4070   -1.4618   -0.5337 H   0  0  0  0  0  0  0  0  0  0  0  0
  1  2  1  0  0  0  0
  1  3  1  0  0  0  0
  1  5  1  0  0  0  0
  1 10  1  0  0  0  0
  2  3  1  0  0  0  0
  2 28  1  0  0  0  0
  2 29  1  0  0  0  0
  3 30  1  0  0  0  0
  3 31  1  0  0  0  0
  4  5  1  0  0  0  0
  4  8  1  0  0  0  0
  5  6  2  0  0  0  0
  6  7  1  0  0  0  0
  7  8  1  0  0  0  0
  7 14  1  0  0  0  0
  7 32  1  6  0  0  0
  8 33  1  0  0  0  0
  8 34  1  0  0  0  0
  9 10  1  0  0  0  0
  9 13  1  0  0  0  0
 10 11  2  0  0  0  0
 11 12  1  0  0  0  0
 12 13  1  0  0  0  0
 12 21  1  0  0  0  0
 12 35  1  1  0  0  0
 13 36  1  0  0  0  0
 13 37  1  0  0  0  0
 14 15  1  0  0  0  0
 14 38  1  0  0  0  0
 14 39  1  0  0  0  0
 15 16  2  0  0  0  0
 15 20  1  0  0  0  0
 16 17  1  0  0  0  0
 16 40  1  0  0  0  0
 17 18  2  0  0  0  0
 17 41  1  0  0  0  0
 18 19  1  0  0  0  0
 18 42  1  0  0  0  0
 19 20  2  0  0  0  0
 19 43  1  0  0  0  0
 20 44  1  0  0  0  0
 21 22  1  0  0  0  0
 21 45  1  0  0  0  0
 21 46  1  0  0  0  0
 22 23  2  0  0  0  0
 22 27  1  0  0  0  0
 23 24  1  0  0  0  0
 23 47  1  0  0  0  0
 24 25  2  0  0  0  0
 24 48  1  0  0  0  0
 25 26  1  0  0  0  0
 25 49  1  0  0  0  0
 26 27  2  0  0  0  0
 26 50  1  0  0  0  0
 27 51  1  0  0  0  0
M  END
$$$$
