Title Card Required
 OpenBabel03192317453D

 74 80  0  0  0  0  0  0  0  0999 V2000
   -1.1620    0.4230   -0.9697 O   0  0  0  0  0  0  0  0  0  0  0  0
   -0.3114    1.5808   -0.2303 P   0  0  0  0  0  0  0  0  0  0  0  0
    0.8154    0.7297    0.5433 O   0  0  0  0  0  0  0  0  0  0  0  0
    1.4665   -0.3143   -0.1004 C   0  0  0  0  0  0  0  0  0  0  0  0
    0.7502   -1.4968   -0.3687 C   0  0  0  0  0  0  0  0  0  0  0  0
   -0.6535   -1.6369    0.1181 C   0  0  0  0  0  0  0  0  0  0  0  0
   -1.5897   -0.6441   -0.1993 C   0  0  0  0  0  0  0  0  0  0  0  0
    2.8273   -0.1731   -0.3977 C   0  0  0  0  0  0  0  0  0  0  0  0
    3.4556   -1.2472   -1.0415 C   0  0  0  0  0  0  0  0  0  0  0  0
    2.7615   -2.3987   -1.3946 C   0  0  0  0  0  0  0  0  0  0  0  0
    3.3829   -3.5377   -2.1576 C   0  0  0  0  0  0  0  0  0  0  0  0
    2.5305   -3.8961   -3.3865 C   0  0  0  0  0  0  0  0  0  0  0  0
    1.0225   -3.9822   -3.0531 C   0  0  0  0  0  0  0  0  0  0  0  0
    0.7281   -3.7839   -1.5560 C   0  0  0  0  0  0  0  0  0  0  0  0
    1.4034   -2.5295   -1.0622 C   0  0  0  0  0  0  0  0  0  0  0  0
   -2.9062   -0.6489    0.2714 C   0  0  0  0  0  0  0  0  0  0  0  0
   -3.2955   -1.7409    1.0553 C   0  0  0  0  0  0  0  0  0  0  0  0
   -2.4015   -2.7548    1.3851 C   0  0  0  0  0  0  0  0  0  0  0  0
   -2.7794   -3.9292    2.2479 C   0  0  0  0  0  0  0  0  0  0  0  0
   -1.7993   -4.0908    3.4222 C   0  0  0  0  0  0  0  0  0  0  0  0
   -0.3261   -3.9197    2.9876 C   0  0  0  0  0  0  0  0  0  0  0  0
   -0.1597   -3.7817    1.4651 C   0  0  0  0  0  0  0  0  0  0  0  0
   -1.0687   -2.6996    0.9401 C   0  0  0  0  0  0  0  0  0  0  0  0
   -3.8227    0.4938    0.0278 C   0  0  0  0  0  0  0  0  0  0  0  0
   -3.9410    1.1088   -1.2225 C   0  0  0  0  0  0  0  0  0  0  0  0
   -4.7978    2.1919   -1.4233 C   0  0  0  0  0  0  0  0  0  0  0  0
   -5.5589    2.6853   -0.3582 C   0  0  0  0  0  0  0  0  0  0  0  0
   -5.4467    2.0818    0.9027 C   0  0  0  0  0  0  0  0  0  0  0  0
   -4.5929    1.0051    1.0867 C   0  0  0  0  0  0  0  0  0  0  0  0
   -6.4106    3.7280   -0.4505 O   0  0  0  0  0  0  0  0  0  0  0  0
   -6.5458    4.3734   -1.6897 C   0  0  0  0  0  0  0  0  0  0  0  0
    3.6236    1.0213   -0.0083 C   0  0  0  0  0  0  0  0  0  0  0  0
    4.8311    0.8393    0.6696 C   0  0  0  0  0  0  0  0  0  0  0  0
    5.6378    1.9176    1.0378 C   0  0  0  0  0  0  0  0  0  0  0  0
    5.2340    3.2165    0.7173 C   0  0  0  0  0  0  0  0  0  0  0  0
    4.0268    3.4120    0.0321 C   0  0  0  0  0  0  0  0  0  0  0  0
    3.2321    2.3338   -0.3244 C   0  0  0  0  0  0  0  0  0  0  0  0
    5.9373    4.3297    1.0237 O   0  0  0  0  0  0  0  0  0  0  0  0
    7.1504    4.1823    1.7097 C   0  0  0  0  0  0  0  0  0  0  0  0
   -1.1740    2.0269    1.0348 O   0  0  0  0  0  0  0  0  0  0  0  0
    0.0973    2.6305   -1.1674 O   0  0  0  0  0  0  0  0  0  0  0  0
    4.5132   -1.1522   -1.2987 H   0  0  0  0  0  0  0  0  0  0  0  0
    4.4114   -3.2908   -2.4553 H   0  0  0  0  0  0  0  0  0  0  0  0
    3.4459   -4.4190   -1.4963 H   0  0  0  0  0  0  0  0  0  0  0  0
    2.8903   -4.8456   -3.8078 H   0  0  0  0  0  0  0  0  0  0  0  0
    2.6943   -3.1294   -4.1571 H   0  0  0  0  0  0  0  0  0  0  0  0
    0.6096   -4.9490   -3.3744 H   0  0  0  0  0  0  0  0  0  0  0  0
    0.4749   -3.2077   -3.6088 H   0  0  0  0  0  0  0  0  0  0  0  0
    1.1116   -4.6529   -0.9938 H   0  0  0  0  0  0  0  0  0  0  0  0
   -0.3551   -3.7470   -1.3833 H   0  0  0  0  0  0  0  0  0  0  0  0
   -4.3246   -1.7898    1.4195 H   0  0  0  0  0  0  0  0  0  0  0  0
   -3.8106   -3.8264    2.6131 H   0  0  0  0  0  0  0  0  0  0  0  0
   -2.7525   -4.8436    1.6307 H   0  0  0  0  0  0  0  0  0  0  0  0
   -1.9559   -5.0756    3.8853 H   0  0  0  0  0  0  0  0  0  0  0  0
   -2.0459   -3.3427    4.1890 H   0  0  0  0  0  0  0  0  0  0  0  0
    0.2820   -4.7653    3.3390 H   0  0  0  0  0  0  0  0  0  0  0  0
    0.0963   -3.0170    3.4517 H   0  0  0  0  0  0  0  0  0  0  0  0
   -0.4149   -4.7401    0.9798 H   0  0  0  0  0  0  0  0  0  0  0  0
    0.8890   -3.5720    1.2205 H   0  0  0  0  0  0  0  0  0  0  0  0
   -3.3525    0.7376   -2.0616 H   0  0  0  0  0  0  0  0  0  0  0  0
   -4.8637    2.6373   -2.4147 H   0  0  0  0  0  0  0  0  0  0  0  0
   -6.0400    2.4875    1.7225 H   0  0  0  0  0  0  0  0  0  0  0  0
   -4.4973    0.5607    2.0795 H   0  0  0  0  0  0  0  0  0  0  0  0
   -5.5881    4.8015   -2.0295 H   0  0  0  0  0  0  0  0  0  0  0  0
   -6.9240    3.6851   -2.4637 H   0  0  0  0  0  0  0  0  0  0  0  0
   -7.2704    5.1821   -1.5453 H   0  0  0  0  0  0  0  0  0  0  0  0
    5.1465   -0.1720    0.9356 H   0  0  0  0  0  0  0  0  0  0  0  0
    6.5665    1.7294    1.5744 H   0  0  0  0  0  0  0  0  0  0  0  0
    3.7350    4.4331   -0.2149 H   0  0  0  0  0  0  0  0  0  0  0  0
    2.3028    2.5177   -0.8657 H   0  0  0  0  0  0  0  0  0  0  0  0
    7.0044    3.7081    2.6949 H   0  0  0  0  0  0  0  0  0  0  0  0
    7.8729    3.5832    1.1302 H   0  0  0  0  0  0  0  0  0  0  0  0
    7.5565    5.1897    1.8542 H   0  0  0  0  0  0  0  0  0  0  0  0
   -1.8388    2.6904    0.7990 H   0  0  0  0  0  0  0  0  0  0  0  0
  1  2  1  0  0  0  0
  1  7  1  0  0  0  0
  2  3  1  0  0  0  0
  2 40  1  0  0  0  0
  2 41  2  0  0  0  0
  3  4  1  0  0  0  0
  4  5  2  0  0  0  0
  4  8  1  0  0  0  0
  5  6  1  0  0  0  0
  5 15  1  0  0  0  0
  6  7  2  0  0  0  0
  6 23  1  0  0  0  0
  7 16  1  0  0  0  0
  8  9  2  0  0  0  0
  8 32  1  0  0  0  0
  9 10  1  0  0  0  0
  9 42  1  0  0  0  0
 10 11  1  0  0  0  0
 10 15  2  0  0  0  0
 11 12  1  0  0  0  0
 11 43  1  0  0  0  0
 11 44  1  0  0  0  0
 12 13  1  0  0  0  0
 12 45  1  0  0  0  0
 12 46  1  0  0  0  0
 13 14  1  0  0  0  0
 13 47  1  0  0  0  0
 13 48  1  0  0  0  0
 14 15  1  0  0  0  0
 14 49  1  0  0  0  0
 14 50  1  0  0  0  0
 16 17  2  0  0  0  0
 16 24  1  0  0  0  0
 17 18  1  0  0  0  0
 17 51  1  0  0  0  0
 18 19  1  0  0  0  0
 18 23  2  0  0  0  0
 19 20  1  0  0  0  0
 19 52  1  0  0  0  0
 19 53  1  0  0  0  0
 20 21  1  0  0  0  0
 20 54  1  0  0  0  0
 20 55  1  0  0  0  0
 21 22  1  0  0  0  0
 21 56  1  0  0  0  0
 21 57  1  0  0  0  0
 22 23  1  0  0  0  0
 22 58  1  0  0  0  0
 22 59  1  0  0  0  0
 24 25  2  0  0  0  0
 24 29  1  0  0  0  0
 25 26  1  0  0  0  0
 25 60  1  0  0  0  0
 26 27  2  0  0  0  0
 26 61  1  0  0  0  0
 27 28  1  0  0  0  0
 27 30  1  0  0  0  0
 28 29  2  0  0  0  0
 28 62  1  0  0  0  0
 29 63  1  0  0  0  0
 30 31  1  0  0  0  0
 31 64  1  0  0  0  0
 31 65  1  0  0  0  0
 31 66  1  0  0  0  0
 32 33  2  0  0  0  0
 32 37  1  0  0  0  0
 33 34  1  0  0  0  0
 33 67  1  0  0  0  0
 34 35  2  0  0  0  0
 34 68  1  0  0  0  0
 35 36  1  0  0  0  0
 35 38  1  0  0  0  0
 36 37  2  0  0  0  0
 36 69  1  0  0  0  0
 37 70  1  0  0  0  0
 38 39  1  0  0  0  0
 39 71  1  0  0  0  0
 39 72  1  0  0  0  0
 39 73  1  0  0  0  0
 40 74  1  0  0  0  0
M  END
$$$$
