Title Card Required
 OpenBabel03192317453D

 86 93  0  0  0  0  0  0  0  0999 V2000
    1.1623    0.3414   -0.8962 O   0  0  0  0  0  0  0  0  0  0  0  0
    0.2010   -0.8256   -0.3135 P   0  0  2  0  0  0  0  0  0  0  0  0
   -0.9446    0.0513    0.4304 O   0  0  0  0  0  0  0  0  0  0  0  0
   -1.5167    1.1338   -0.2210 C   0  0  0  0  0  0  0  0  0  0  0  0
   -0.7439    2.2992   -0.3754 C   0  0  0  0  0  0  0  0  0  0  0  0
    0.6106    2.3636    0.2456 C   0  0  0  0  0  0  0  0  0  0  0  0
    1.5470    1.3571   -0.0401 C   0  0  0  0  0  0  0  0  0  0  0  0
   -2.8510    1.0575   -0.6374 C   0  0  0  0  0  0  0  0  0  0  0  0
   -3.3819    2.1781   -1.2897 C   0  0  0  0  0  0  0  0  0  0  0  0
   -2.6209    3.3153   -1.5349 C   0  0  0  0  0  3  0  0  0  0  0  0
   -3.1366    4.5089   -2.2927 C   0  0  0  0  0  3  0  0  0  0  0  0
   -2.1651    4.9073   -3.4169 C   0  0  0  0  0  0  0  0  0  0  0  0
   -0.6906    4.9138   -2.9488 C   0  0  0  0  0  0  0  0  0  0  0  0
   -0.5400    4.6355   -1.4435 C   0  0  0  0  0  0  0  0  0  0  0  0
   -1.2954    3.3842   -1.0757 C   0  0  0  0  0  0  0  0  0  0  0  0
    2.8267    1.3197    0.5283 C   0  0  0  0  0  0  0  0  0  0  0  0
    3.1654    2.3633    1.4010 C   0  0  0  0  0  0  0  0  0  0  0  0
    2.2640    3.3737    1.7148 C   0  0  0  0  0  0  0  0  0  0  0  0
    2.5870    4.4942    2.6666 C   0  0  0  0  0  0  0  0  0  0  0  0
    1.5117    4.6223    3.7593 C   0  0  0  0  0  0  0  0  0  0  0  0
    0.0787    4.4975    3.1929 C   0  0  0  0  0  0  0  0  0  0  0  0
    0.0432    4.4467    1.6565 C   0  0  0  0  0  0  0  0  0  0  0  0
    0.9731    3.3715    1.1552 C   0  0  0  0  0  0  0  0  0  0  0  0
    0.9693   -1.4604    0.9231 O   0  0  0  0  0  0  0  0  0  0  0  0
    5.6267   -1.8948   -0.1652 C   0  0  0  0  0  0  0  0  0  0  0  0
    4.8737   -1.3626   -1.2213 C   0  0  0  0  0  0  0  0  0  0  0  0
    3.9625   -0.3343   -1.0113 C   0  0  0  0  0  0  0  0  0  0  0  0
    3.7770    0.2059    0.2697 C   0  0  0  0  0  0  0  0  0  0  0  0
    4.5290   -0.3250    1.3269 C   0  0  0  0  0  0  0  0  0  0  0  0
    5.4362   -1.3581    1.1144 C   0  0  0  0  0  0  0  0  0  0  0  0
    6.5991   -2.9930   -0.3967 C   0  0  0  0  0  0  0  0  0  0  0  0
    7.3783   -3.0247   -1.5619 C   0  0  0  0  0  0  0  0  0  0  0  0
    8.2946   -4.0508   -1.7787 C   0  0  0  0  0  0  0  0  0  0  0  0
    8.4470   -5.0660   -0.8349 C   0  0  0  0  0  0  0  0  0  0  0  0
    7.6760   -5.0470    0.3269 C   0  0  0  0  0  0  0  0  0  0  0  0
    6.7608   -4.0198    0.5440 C   0  0  0  0  0  0  0  0  0  0  0  0
   -5.4934   -2.2614    0.1608 C   0  0  0  0  0  0  0  0  0  0  0  0
   -5.8511   -0.9450    0.4811 C   0  0  0  0  0  0  0  0  0  0  0  0
   -4.9831    0.1105    0.2239 C   0  0  0  0  0  0  0  0  0  0  0  0
   -3.7274   -0.1122   -0.3582 C   0  0  0  0  0  0  0  0  0  0  0  0
   -3.3655   -1.4260   -0.6826 C   0  0  0  0  0  0  0  0  0  0  0  0
   -4.2389   -2.4787   -0.4250 C   0  0  0  0  0  0  0  0  0  0  0  0
   -6.4184   -3.3912    0.4329 C   0  0  0  0  0  0  0  0  0  0  0  0
   -7.8025   -3.2428    0.2637 C   0  0  0  0  0  0  0  0  0  0  0  0
   -8.6705   -4.3021    0.5171 C   0  0  0  0  0  0  0  0  0  0  0  0
   -8.1707   -5.5316    0.9447 C   0  0  0  0  0  0  0  0  0  0  0  0
   -6.7963   -5.6922    1.1171 C   0  0  0  0  0  0  0  0  0  0  0  0
   -5.9288   -4.6325    0.8634 C   0  0  0  0  0  0  0  0  0  0  0  0
   -0.2206   -1.7798   -1.3350 O   0  0  0  0  0  0  0  0  0  0  0  0
   -4.4161    2.1343   -1.6396 H   0  0  0  0  0  0  0  0  0  0  0  0
   -4.1383    4.3089   -2.6975 H   0  0  0  0  0  0  0  0  0  0  0  0
   -3.2414    5.3557   -1.5928 H   0  0  0  0  0  0  0  0  0  0  0  0
   -2.4534    5.8943   -3.8054 H   0  0  0  0  0  0  0  0  0  0  0  0
   -2.2849    4.1971   -4.2472 H   0  0  0  0  0  0  0  0  0  0  0  0
   -0.2130    5.8754   -3.1842 H   0  0  0  0  0  0  0  0  0  0  0  0
   -0.1257    4.1421   -3.4909 H   0  0  0  0  0  0  0  0  0  0  0  0
   -0.9477    5.4899   -0.8757 H   0  0  0  0  0  0  0  0  0  0  0  0
    0.5220    4.5547   -1.1776 H   0  0  0  0  0  0  0  0  0  0  0  0
    4.1669    2.3808    1.8369 H   0  0  0  0  0  0  0  0  0  0  0  0
    3.5811    4.3514    3.1123 H   0  0  0  0  0  0  0  0  0  0  0  0
    2.6294    5.4371    2.0955 H   0  0  0  0  0  0  0  0  0  0  0  0
    1.6429    5.5839    4.2753 H   0  0  0  0  0  0  0  0  0  0  0  0
    1.6801    3.8394    4.5124 H   0  0  0  0  0  0  0  0  0  0  0  0
   -0.5482    5.3312    3.5388 H   0  0  0  0  0  0  0  0  0  0  0  0
   -0.3912    3.5771    3.5686 H   0  0  0  0  0  0  0  0  0  0  0  0
    0.3627    5.4228    1.2513 H   0  0  0  0  0  0  0  0  0  0  0  0
   -0.9837    4.2773    1.3100 H   0  0  0  0  0  0  0  0  0  0  0  0
    1.3567   -0.8150    1.5329 H   0  0  0  0  0  0  0  0  0  0  0  0
    4.9866   -1.7792   -2.2238 H   0  0  0  0  0  0  0  0  0  0  0  0
    3.3830    0.0529   -1.8489 H   0  0  0  0  0  0  0  0  0  0  0  0
    4.3979    0.0738    2.3353 H   0  0  0  0  0  0  0  0  0  0  0  0
    6.0212   -1.7419    1.9522 H   0  0  0  0  0  0  0  0  0  0  0  0
    7.2797   -2.2221   -2.2952 H   0  0  0  0  0  0  0  0  0  0  0  0
    8.8988   -4.0536   -2.6873 H   0  0  0  0  0  0  0  0  0  0  0  0
    9.1649   -5.8698   -1.0044 H   0  0  0  0  0  0  0  0  0  0  0  0
    7.7818   -5.8423    1.0663 H   0  0  0  0  0  0  0  0  0  0  0  0
    6.1422   -4.0260    1.4435 H   0  0  0  0  0  0  0  0  0  0  0  0
   -6.8094   -0.7494    0.9659 H   0  0  0  0  0  0  0  0  0  0  0  0
   -5.2709    1.1264    0.5029 H   0  0  0  0  0  0  0  0  0  0  0  0
   -2.4067   -1.6319   -1.1602 H   0  0  0  0  0  0  0  0  0  0  0  0
   -3.9477   -3.4903   -0.7139 H   0  0  0  0  0  0  0  0  0  0  0  0
   -8.1988   -2.2912   -0.0962 H   0  0  0  0  0  0  0  0  0  0  0  0
   -9.7436   -4.1689    0.3706 H   0  0  0  0  0  0  0  0  0  0  0  0
   -8.8504   -6.3617    1.1429 H   0  0  0  0  0  0  0  0  0  0  0  0
   -6.3966   -6.6481    1.4597 H   0  0  0  0  0  0  0  0  0  0  0  0
   -4.8564   -4.7593    1.0229 H   0  0  0  0  0  0  0  0  0  0  0  0
  1  2  1  0  0  0  0
  1  7  1  0  0  0  0
  2  3  1  0  0  0  0
  2 24  1  0  0  0  0
  2 49  2  6  0  0  0
  3  4  1  0  0  0  0
  4  5  2  0  0  0  0
  4  8  1  0  0  0  0
  5  6  1  0  0  0  0
  5 15  1  0  0  0  0
  6  7  2  0  0  0  0
  6 23  1  0  0  0  0
  7 16  1  0  0  0  0
  8  9  2  0  0  0  0
  8 40  1  0  0  0  0
  9 10  1  0  0  0  0
  9 50  1  0  0  0  0
 10 15  2  0  0  0  0
 11 12  1  0  0  0  0
 11 51  1  0  0  0  0
 11 52  1  0  0  0  0
 12 13  1  0  0  0  0
 12 53  1  0  0  0  0
 12 54  1  0  0  0  0
 13 14  1  0  0  0  0
 13 55  1  0  0  0  0
 13 56  1  0  0  0  0
 14 15  1  0  0  0  0
 14 57  1  0  0  0  0
 14 58  1  0  0  0  0
 16 17  2  0  0  0  0
 16 28  1  0  0  0  0
 17 18  1  0  0  0  0
 17 59  1  0  0  0  0
 18 19  1  0  0  0  0
 18 23  2  0  0  0  0
 19 20  1  0  0  0  0
 19 60  1  0  0  0  0
 19 61  1  0  0  0  0
 20 21  1  0  0  0  0
 20 62  1  0  0  0  0
 20 63  1  0  0  0  0
 21 22  1  0  0  0  0
 21 64  1  0  0  0  0
 21 65  1  0  0  0  0
 22 23  1  0  0  0  0
 22 66  1  0  0  0  0
 22 67  1  0  0  0  0
 24 68  1  0  0  0  0
 25 26  2  0  0  0  0
 25 30  1  0  0  0  0
 25 31  1  0  0  0  0
 26 27  1  0  0  0  0
 26 69  1  0  0  0  0
 27 28  2  0  0  0  0
 27 70  1  0  0  0  0
 28 29  1  0  0  0  0
 29 30  2  0  0  0  0
 29 71  1  0  0  0  0
 30 72  1  0  0  0  0
 31 32  2  0  0  0  0
 31 36  1  0  0  0  0
 32 33  1  0  0  0  0
 32 73  1  0  0  0  0
 33 34  2  0  0  0  0
 33 74  1  0  0  0  0
 34 35  1  0  0  0  0
 34 75  1  0  0  0  0
 35 36  2  0  0  0  0
 35 76  1  0  0  0  0
 36 77  1  0  0  0  0
 37 38  2  0  0  0  0
 37 42  1  0  0  0  0
 37 43  1  0  0  0  0
 38 39  1  0  0  0  0
 38 78  1  0  0  0  0
 39 40  2  0  0  0  0
 39 79  1  0  0  0  0
 40 41  1  0  0  0  0
 41 42  2  0  0  0  0
 41 80  1  0  0  0  0
 42 81  1  0  0  0  0
 43 44  2  0  0  0  0
 43 48  1  0  0  0  0
 44 45  1  0  0  0  0
 44 82  1  0  0  0  0
 45 46  2  0  0  0  0
 45 83  1  0  0  0  0
 46 47  1  0  0  0  0
 46 84  1  0  0  0  0
 47 48  2  0  0  0  0
 47 85  1  0  0  0  0
 48 86  1  0  0  0  0
M  END
$$$$
