Title Card Required
 OpenBabel03192317513D

 42 45  0  0  1  0  0  0  0  0999 V2000
   -0.4047   -1.1197   -0.5874 O   0  0  0  0  0  0  0  0  0  0  0  0
    0.3066   -0.0297   -0.9212 C   0  0  0  0  0  0  0  0  0  0  0  0
   -0.2884    0.9370   -1.4913 N   0  0  0  0  0  0  0  0  0  0  0  0
   -1.7018    0.5784   -1.5504 C   0  0  1  0  0  0  0  0  0  0  0  0
   -1.6834   -0.9615   -1.2122 C   0  0  2  0  0  0  0  0  0  0  0  0
    1.7508   -0.0273   -0.5728 C   0  0  0  0  0  0  0  0  0  0  0  0
    2.5094    1.1077   -0.8776 C   0  0  0  0  0  0  0  0  0  0  0  0
    3.8610    1.0991   -0.5560 C   0  0  0  0  0  0  0  0  0  0  0  0
    4.3854   -0.0361    0.0549 C   0  0  0  0  0  0  0  0  0  0  0  0
    3.5394   -1.1175    0.3181 C   0  0  0  0  0  0  0  0  0  0  0  0
    2.2503   -1.1152    0.0112 N   0  0  0  0  0  0  0  0  0  0  0  0
    5.8352   -0.1260    0.4478 C   0  0  0  0  0  0  0  0  0  0  0  0
    6.5274    0.9296    0.0205 F   0  0  0  0  0  0  0  0  0  0  0  0
    5.9757   -0.1920    1.7726 F   0  0  0  0  0  0  0  0  0  0  0  0
    6.4063   -1.2193   -0.0599 F   0  0  0  0  0  0  0  0  0  0  0  0
   -2.7953   -1.4682   -0.3414 C   0  0  0  0  0  0  0  0  0  0  0  0
   -2.7370   -1.3267    1.0474 C   0  0  0  0  0  0  0  0  0  0  0  0
   -3.8262   -1.6938    1.8327 C   0  0  0  0  0  0  0  0  0  0  0  0
   -4.9797   -2.2077    1.2380 C   0  0  0  0  0  0  0  0  0  0  0  0
   -5.0353   -2.3654   -0.1453 C   0  0  0  0  0  0  0  0  0  0  0  0
   -3.9433   -1.9996   -0.9315 C   0  0  0  0  0  0  0  0  0  0  0  0
   -2.5379    1.4094   -0.5963 C   0  0  0  0  0  0  0  0  0  0  0  0
   -3.9203    1.4899   -0.7946 C   0  0  0  0  0  0  0  0  0  0  0  0
   -4.7319    2.1507    0.1226 C   0  0  0  0  0  0  0  0  0  0  0  0
   -4.1668    2.7533    1.2472 C   0  0  0  0  0  0  0  0  0  0  0  0
   -2.7886    2.6955    1.4405 C   0  0  0  0  0  0  0  0  0  0  0  0
   -1.9773    2.0271    0.5230 C   0  0  0  0  0  0  0  0  0  0  0  0
   -2.0881    0.7257   -2.5692 H   0  0  0  0  0  0  0  0  0  0  0  0
   -1.6596   -1.5324   -2.1551 H   0  0  0  0  0  0  0  0  0  0  0  0
    2.0241    1.9566   -1.3581 H   0  0  0  0  0  0  0  0  0  0  0  0
    4.5013    1.9539   -0.7764 H   0  0  0  0  0  0  0  0  0  0  0  0
    3.9349   -2.0205    0.7946 H   0  0  0  0  0  0  0  0  0  0  0  0
   -1.8316   -0.9233    1.5034 H   0  0  0  0  0  0  0  0  0  0  0  0
   -3.7764   -1.5769    2.9162 H   0  0  0  0  0  0  0  0  0  0  0  0
   -5.8329   -2.4928    1.8554 H   0  0  0  0  0  0  0  0  0  0  0  0
   -5.9291   -2.7797   -0.6141 H   0  0  0  0  0  0  0  0  0  0  0  0
   -3.9850   -2.1250   -2.0166 H   0  0  0  0  0  0  0  0  0  0  0  0
   -4.3682    1.0133   -1.6701 H   0  0  0  0  0  0  0  0  0  0  0  0
   -5.8097    2.1965   -0.0405 H   0  0  0  0  0  0  0  0  0  0  0  0
   -4.8007    3.2727    1.9674 H   0  0  0  0  0  0  0  0  0  0  0  0
   -2.3382    3.1740    2.3116 H   0  0  0  0  0  0  0  0  0  0  0  0
   -0.8974    1.9882    0.6744 H   0  0  0  0  0  0  0  0  0  0  0  0
  1  2  1  0  0  0  0
  1  5  1  0  0  0  0
  2  3  2  0  0  0  0
  2  6  1  0  0  0  0
  3  4  1  0  0  0  0
  4  5  1  0  0  0  0
  4 22  1  0  0  0  0
  4 28  1  6  0  0  0
  5 16  1  0  0  0  0
  5 29  1  6  0  0  0
  6  7  2  0  0  0  0
  6 11  1  0  0  0  0
  7  8  1  0  0  0  0
  7 30  1  0  0  0  0
  8  9  2  0  0  0  0
  8 31  1  0  0  0  0
  9 10  1  0  0  0  0
  9 12  1  0  0  0  0
 10 11  2  0  0  0  0
 10 32  1  0  0  0  0
 12 13  1  0  0  0  0
 12 14  1  0  0  0  0
 12 15  1  0  0  0  0
 16 17  2  0  0  0  0
 16 21  1  0  0  0  0
 17 18  1  0  0  0  0
 17 33  1  0  0  0  0
 18 19  2  0  0  0  0
 18 34  1  0  0  0  0
 19 20  1  0  0  0  0
 19 35  1  0  0  0  0
 20 21  2  0  0  0  0
 20 36  1  0  0  0  0
 21 37  1  0  0  0  0
 22 23  2  0  0  0  0
 22 27  1  0  0  0  0
 23 24  1  0  0  0  0
 23 38  1  0  0  0  0
 24 25  2  0  0  0  0
 24 39  1  0  0  0  0
 25 26  1  0  0  0  0
 25 40  1  0  0  0  0
 26 27  2  0  0  0  0
 26 41  1  0  0  0  0
 27 42  1  0  0  0  0
M  END
$$$$
