Title Card Required
 OpenBabel03192317423D

 61 63  0  0  1  0  0  0  0  0999 V2000
   -3.7839   -3.0668   -0.0512 C   0  0  0  0  0  0  0  0  0  0  0  0
   -3.4778   -1.7712    0.6953 C   0  0  0  0  0  0  0  0  0  0  0  0
    0.2574   -3.2314    0.8085 C   0  0  0  0  0  0  0  0  0  0  0  0
   -1.0798    3.6197   -2.1950 C   0  0  0  0  0  0  0  0  0  0  0  0
    0.6148    0.3264    1.1786 C   0  0  0  0  0  0  0  0  0  0  0  0
    1.6800    0.3772    2.0912 C   0  0  0  0  0  0  0  0  0  0  0  0
    1.5322    0.8729    3.3829 C   0  0  0  0  0  0  0  0  0  0  0  0
    0.2835    1.3275    3.7852 C   0  0  0  0  0  0  0  0  0  0  0  0
   -0.7861    1.2625    2.8956 C   0  0  0  0  0  0  0  0  0  0  0  0
   -0.6730    0.7681    1.5813 C   0  0  0  0  0  0  0  0  0  0  0  0
    1.2146   -3.1007   -0.3711 C   0  0  0  0  0  0  0  0  0  0  0  0
    2.1067   -1.8601   -0.2913 C   0  0  1  0  0  0  0  0  0  0  0  0
   -2.7019   -0.7636   -0.1493 C   0  0  1  0  0  0  0  0  0  0  0  0
   -3.4425   -0.2463   -1.3926 C   0  0  0  0  0  0  0  0  0  0  0  0
   -2.6453    0.9350   -1.9520 C   0  0  0  0  0  0  0  0  0  0  0  0
   -2.2846    1.8798   -0.7890 C   0  0  2  0  0  0  0  0  0  0  0  0
    3.1369   -1.7437   -1.4473 C   0  0  0  0  0  0  0  0  0  0  0  0
    2.9761   -0.4043   -2.2118 C   0  0  0  0  0  0  0  0  0  0  0  0
    2.4246    0.6841   -1.2668 C   0  0  1  0  0  0  0  0  0  0  0  0
   -1.0040    2.6841   -0.9921 C   0  0  0  0  0  0  0  0  0  0  0  0
   -2.3762    0.8279    0.7800 P   0  0  2  0  0  0  0  0  0  0  0  0
    1.0937   -0.3225   -0.4663 P   0  0  2  0  0  0  0  0  0  0  0  0
    3.4757    1.4315   -0.4348 C   0  0  0  0  0  0  0  0  0  0  0  0
    4.6497    0.6121    0.0983 C   0  0  0  0  0  0  0  0  0  0  0  0
   -0.0211   -0.5294   -1.4544 O   0  0  0  0  0  0  0  0  0  0  0  0
   -4.4506   -2.8877   -0.9074 H   0  0  0  0  0  0  0  0  0  0  0  0
   -4.2734   -3.8014    0.6042 H   0  0  0  0  0  0  0  0  0  0  0  0
   -2.8585   -3.5202   -0.4394 H   0  0  0  0  0  0  0  0  0  0  0  0
   -4.4142   -1.3076    1.0506 H   0  0  0  0  0  0  0  0  0  0  0  0
   -2.8939   -2.0041    1.6026 H   0  0  0  0  0  0  0  0  0  0  0  0
   -0.4602   -2.3963    0.8366 H   0  0  0  0  0  0  0  0  0  0  0  0
   -0.3238   -4.1620    0.7475 H   0  0  0  0  0  0  0  0  0  0  0  0
    0.8018   -3.2341    1.7657 H   0  0  0  0  0  0  0  0  0  0  0  0
   -1.9111    4.3336   -2.0887 H   0  0  0  0  0  0  0  0  0  0  0  0
   -0.1521    4.1989   -2.3109 H   0  0  0  0  0  0  0  0  0  0  0  0
   -1.2406    3.0545   -3.1247 H   0  0  0  0  0  0  0  0  0  0  0  0
    2.6650    0.0225    1.7871 H   0  0  0  0  0  0  0  0  0  0  0  0
    2.3865    0.8971    4.0607 H   0  0  0  0  0  0  0  0  0  0  0  0
    0.1318    1.7231    4.7907 H   0  0  0  0  0  0  0  0  0  0  0  0
   -1.7693    1.6005    3.2281 H   0  0  0  0  0  0  0  0  0  0  0  0
    0.6449   -3.0491   -1.3128 H   0  0  0  0  0  0  0  0  0  0  0  0
    1.8625   -3.9906   -0.4308 H   0  0  0  0  0  0  0  0  0  0  0  0
    2.6200   -1.8490    0.6832 H   0  0  0  0  0  0  0  0  0  0  0  0
   -1.7514   -1.1919   -0.4916 H   0  0  0  0  0  0  0  0  0  0  0  0
   -3.5561   -1.0411   -2.1454 H   0  0  0  0  0  0  0  0  0  0  0  0
   -4.4610    0.0769   -1.1053 H   0  0  0  0  0  0  0  0  0  0  0  0
   -1.7135    0.5497   -2.3880 H   0  0  0  0  0  0  0  0  0  0  0  0
   -3.2099    1.4655   -2.7345 H   0  0  0  0  0  0  0  0  0  0  0  0
   -3.1103    2.5988   -0.6472 H   0  0  0  0  0  0  0  0  0  0  0  0
    4.1535   -1.8369   -1.0431 H   0  0  0  0  0  0  0  0  0  0  0  0
    3.0008   -2.5820   -2.1456 H   0  0  0  0  0  0  0  0  0  0  0  0
    3.9217   -0.0863   -2.6763 H   0  0  0  0  0  0  0  0  0  0  0  0
    2.2435   -0.5449   -3.0177 H   0  0  0  0  0  0  0  0  0  0  0  0
    1.8640    1.4271   -1.8536 H   0  0  0  0  0  0  0  0  0  0  0  0
   -0.7796    3.2642   -0.0813 H   0  0  0  0  0  0  0  0  0  0  0  0
   -0.1744    1.9763   -1.1325 H   0  0  0  0  0  0  0  0  0  0  0  0
    3.8923    2.2197   -1.0825 H   0  0  0  0  0  0  0  0  0  0  0  0
    2.9756    1.9635    0.3903 H   0  0  0  0  0  0  0  0  0  0  0  0
    5.2519    0.1994   -0.7236 H   0  0  0  0  0  0  0  0  0  0  0  0
    5.3114    1.2471    0.7038 H   0  0  0  0  0  0  0  0  0  0  0  0
    4.3406   -0.2358    0.7275 H   0  0  0  0  0  0  0  0  0  0  0  0
  1  2  1  0  0  0  0
  1 26  1  0  0  0  0
  1 27  1  0  0  0  0
  1 28  1  0  0  0  0
  2 13  1  0  0  0  0
  2 29  1  0  0  0  0
  2 30  1  0  0  0  0
  3 11  1  0  0  0  0
  3 31  1  0  0  0  0
  3 32  1  0  0  0  0
  3 33  1  0  0  0  0
  4 20  1  0  0  0  0
  4 34  1  0  0  0  0
  4 35  1  0  0  0  0
  4 36  1  0  0  0  0
  5  6  2  0  0  0  0
  5 10  1  0  0  0  0
  5 22  1  0  0  0  0
  6  7  1  0  0  0  0
  6 37  1  0  0  0  0
  7  8  2  0  0  0  0
  7 38  1  0  0  0  0
  8  9  1  0  0  0  0
  8 39  1  0  0  0  0
  9 10  2  0  0  0  0
  9 40  1  0  0  0  0
 11 12  1  0  0  0  0
 11 41  1  0  0  0  0
 11 42  1  0  0  0  0
 12 17  1  0  0  0  0
 12 22  1  0  0  0  0
 12 43  1  1  0  0  0
 13 14  1  0  0  0  0
 13 21  1  0  0  0  0
 13 44  1  6  0  0  0
 14 15  1  0  0  0  0
 14 45  1  0  0  0  0
 14 46  1  0  0  0  0
 15 16  1  0  0  0  0
 15 47  1  0  0  0  0
 15 48  1  0  0  0  0
 16 20  1  0  0  0  0
 16 21  1  0  0  0  0
 16 49  1  1  0  0  0
 17 18  1  0  0  0  0
 17 50  1  0  0  0  0
 17 51  1  0  0  0  0
 18 19  1  0  0  0  0
 18 52  1  0  0  0  0
 18 53  1  0  0  0  0
 19 22  1  0  0  0  0
 19 23  1  0  0  0  0
 19 54  1  6  0  0  0
 20 55  1  0  0  0  0
 20 56  1  0  0  0  0
 21 10  1  6  0  0  0
 22 25  2  6  0  0  0
 23 24  1  0  0  0  0
 23 57  1  0  0  0  0
 23 58  1  0  0  0  0
 24 59  1  0  0  0  0
 24 60  1  0  0  0  0
 24 61  1  0  0  0  0
M  END
$$$$
