Title Card Required
 OpenBabel03192317433D

 50 51  0  0  1  0  0  0  0  0999 V2000
    0.4537   -0.4875   -0.7542 C   0  0  1  0  0  0  0  0  0  0  0  0
   -0.3953    0.7528   -0.3757 C   0  0  1  0  0  0  0  0  0  0  0  0
    0.3198   -0.7744   -2.1687 N   0  0  0  0  0  0  0  0  0  0  0  0
   -0.2109    1.8360   -1.3483 N   0  0  0  0  0  0  0  0  0  0  0  0
   -1.2212    1.9759   -2.3904 C   0  0  0  0  0  0  0  0  0  0  0  0
    1.0190   -1.9636   -2.6171 C   0  0  0  0  0  0  0  0  0  0  0  0
   -1.8561    0.4157   -0.1075 C   0  0  0  0  0  0  0  0  0  0  0  0
   -2.5123   -0.6340   -0.7583 C   0  0  0  0  0  0  0  0  0  0  0  0
   -3.8497   -0.8923   -0.4923 C   0  0  0  0  0  0  0  0  0  0  0  0
   -4.5684   -0.1159    0.4157 C   0  0  0  0  0  0  0  0  0  0  0  0
   -3.9212    0.9302    1.0520 C   0  0  0  0  0  0  0  0  0  0  0  0
   -2.5765    1.1950    0.7950 C   0  0  0  0  0  0  0  0  0  0  0  0
   -4.6524    1.8058    2.0381 C   0  0  0  0  0  0  0  0  0  0  0  0
   -5.8869    1.3410    2.2940 F   0  0  0  0  0  0  0  0  0  0  0  0
   -3.9808    1.8780    3.2040 F   0  0  0  0  0  0  0  0  0  0  0  0
   -4.7705    3.0637    1.5680 F   0  0  0  0  0  0  0  0  0  0  0  0
   -4.5668   -2.0085   -1.1998 C   0  0  0  0  0  0  0  0  0  0  0  0
   -3.7452   -2.7915   -1.8617 F   0  0  0  0  0  0  0  0  0  0  0  0
   -5.2345   -2.7658   -0.3549 F   0  0  0  0  0  0  0  0  0  0  0  0
   -5.4474   -1.5517   -2.0661 F   0  0  0  0  0  0  0  0  0  0  0  0
    1.8966   -0.3190   -0.2930 C   0  0  0  0  0  0  0  0  0  0  0  0
    2.7027    0.6908   -0.8342 C   0  0  0  0  0  0  0  0  0  0  0  0
    4.0226    0.8267   -0.4247 C   0  0  0  0  0  0  0  0  0  0  0  0
    4.5745   -0.0319    0.5283 C   0  0  0  0  0  0  0  0  0  0  0  0
    3.7800   -1.0328    1.0564 C   0  0  0  0  0  0  0  0  0  0  0  0
    2.4510   -1.1812    0.6472 C   0  0  0  0  0  0  0  0  0  0  0  0
    4.3147   -1.9697    2.1088 C   0  0  0  0  0  0  0  0  0  0  0  0
    5.6287   -1.8018    2.3044 F   0  0  0  0  0  0  0  0  0  0  0  0
    3.6950   -1.7721    3.2830 F   0  0  0  0  0  0  0  0  0  0  0  0
    4.1076   -3.2494    1.7623 F   0  0  0  0  0  0  0  0  0  0  0  0
    4.9001    1.8995   -1.0088 C   0  0  0  0  0  0  0  0  0  0  0  0
    4.3399    2.4990   -2.0387 F   0  0  0  0  0  0  0  0  0  0  0  0
    5.1844    2.8353   -0.1241 F   0  0  0  0  0  0  0  0  0  0  0  0
    6.0536    1.4109   -1.4197 F   0  0  0  0  0  0  0  0  0  0  0  0
    0.0396   -1.3477   -0.1997 H   0  0  0  0  0  0  0  0  0  0  0  0
    0.0151    1.1181    0.5776 H   0  0  0  0  0  0  0  0  0  0  0  0
    0.6091    0.0475   -2.6972 H   0  0  0  0  0  0  0  0  0  0  0  0
   -0.0956    2.7191   -0.8608 H   0  0  0  0  0  0  0  0  0  0  0  0
   -2.2021    2.3283   -2.0235 H   0  0  0  0  0  0  0  0  0  0  0  0
   -0.8587    2.6847   -3.1478 H   0  0  0  0  0  0  0  0  0  0  0  0
   -1.3808    1.0071   -2.8814 H   0  0  0  0  0  0  0  0  0  0  0  0
    0.8471   -2.1066   -3.6918 H   0  0  0  0  0  0  0  0  0  0  0  0
    2.1108   -1.9435   -2.4381 H   0  0  0  0  0  0  0  0  0  0  0  0
    0.6121   -2.8450   -2.0977 H   0  0  0  0  0  0  0  0  0  0  0  0
   -1.9679   -1.2391   -1.4857 H   0  0  0  0  0  0  0  0  0  0  0  0
   -5.6152   -0.3341    0.6321 H   0  0  0  0  0  0  0  0  0  0  0  0
   -2.0828    2.0164    1.3223 H   0  0  0  0  0  0  0  0  0  0  0  0
    2.2835    1.3757   -1.5731 H   0  0  0  0  0  0  0  0  0  0  0  0
    5.6134    0.0762    0.8428 H   0  0  0  0  0  0  0  0  0  0  0  0
    1.8449   -1.9846    1.0745 H   0  0  0  0  0  0  0  0  0  0  0  0
  1  2  1  0  0  0  0
  1  3  1  0  0  0  0
  1 21  1  0  0  0  0
  1 35  1  1  0  0  0
  2  4  1  0  0  0  0
  2  7  1  0  0  0  0
  2 36  1  1  0  0  0
  3  6  1  0  0  0  0
  3 37  1  0  0  0  0
  4  5  1  0  0  0  0
  4 38  1  0  0  0  0
  5 39  1  0  0  0  0
  5 40  1  0  0  0  0
  5 41  1  0  0  0  0
  6 42  1  0  0  0  0
  6 43  1  0  0  0  0
  6 44  1  0  0  0  0
  7  8  2  0  0  0  0
  7 12  1  0  0  0  0
  8  9  1  0  0  0  0
  8 45  1  0  0  0  0
  9 10  2  0  0  0  0
  9 17  1  0  0  0  0
 10 11  1  0  0  0  0
 10 46  1  0  0  0  0
 11 12  2  0  0  0  0
 11 13  1  0  0  0  0
 12 47  1  0  0  0  0
 13 14  1  0  0  0  0
 13 15  1  0  0  0  0
 13 16  1  0  0  0  0
 17 18  1  0  0  0  0
 17 19  1  0  0  0  0
 17 20  1  0  0  0  0
 21 22  2  0  0  0  0
 21 26  1  0  0  0  0
 22 23  1  0  0  0  0
 22 48  1  0  0  0  0
 23 24  2  0  0  0  0
 23 31  1  0  0  0  0
 24 25  1  0  0  0  0
 24 49  1  0  0  0  0
 25 26  2  0  0  0  0
 25 27  1  0  0  0  0
 26 50  1  0  0  0  0
 27 28  1  0  0  0  0
 27 29  1  0  0  0  0
 27 30  1  0  0  0  0
 31 32  1  0  0  0  0
 31 33  1  0  0  0  0
 31 34  1  0  0  0  0
M  END
$$$$
