Title Card Required
 OpenBabel03192317573D

135148  0  0  1  0  0  0  0  0999 V2000
   -0.0042    0.9867   -0.2734 C   0  0  2  0  0  0  0  0  0  0  0  0
   -0.1876    0.2065    1.0508 C   0  0  0  0  0  0  0  0  0  0  0  0
   -0.0535   -1.2879    0.9006 C   0  0  0  0  0  0  0  0  0  0  0  0
    1.1703   -1.9223    1.1437 C   0  0  0  0  0  0  0  0  0  0  0  0
    1.2943   -3.3054    1.0450 C   0  0  0  0  0  0  0  0  0  0  0  0
    0.2013   -4.1161    0.7023 C   0  0  0  0  0  0  0  0  0  0  0  0
   -1.0151   -3.4731    0.4427 C   0  0  0  0  0  0  0  0  0  0  0  0
   -1.1418   -2.0874    0.5428 C   0  0  0  0  0  0  0  0  0  0  0  0
    0.3555   -5.6345    0.6740 C   0  0  2  0  0  0  0  0  0  0  0  0
    0.7340   -6.1442    2.0848 C   0  0  0  0  0  0  0  0  0  0  0  0
    0.9259   -7.6668    2.0835 C   0  0  1  0  0  0  0  0  0  0  0  0
   -0.3786   -8.3466    1.6482 C   0  0  0  0  0  0  0  0  0  0  0  0
   -0.7525   -7.8726    0.2381 C   0  0  2  0  0  0  0  0  0  0  0  0
    0.3641   -8.2502   -0.7429 C   0  0  0  0  0  0  0  0  0  0  0  0
    1.6689   -7.5713   -0.3093 C   0  0  1  0  0  0  0  0  0  0  0  0
    1.4755   -6.0492   -0.3063 C   0  0  0  0  0  0  0  0  0  0  0  0
    2.0465   -8.0388    1.1029 C   0  0  0  0  0  0  0  0  0  0  0  0
   -0.9397   -6.3498    0.2446 C   0  0  0  0  0  0  0  0  0  0  0  0
    2.3878    1.0431    0.0821 O   0  0  0  0  0  0  0  0  0  0  0  0
    1.3981    0.7698   -0.8077 C   0  0  0  0  0  0  0  0  0  0  0  0
    1.7318    0.4653   -1.9894 N   0  0  0  0  0  0  0  0  0  0  0  0
    3.1947    0.4616   -2.0313 C   0  0  1  0  0  0  0  0  0  0  0  0
    3.5764    1.2118   -0.7058 C   0  0  2  0  0  0  0  0  0  0  0  0
    0.2305    2.8944    1.2340 O   0  0  0  0  0  0  0  0  0  0  0  0
    0.0019    2.4888   -0.0298 C   0  0  0  0  0  0  0  0  0  0  0  0
   -0.0728    3.3645   -0.9397 N   0  0  0  0  0  0  0  0  0  0  0  0
    0.2586    4.6496   -0.3387 C   0  0  1  0  0  0  0  0  0  0  0  0
    0.3418    4.3228    1.2129 C   0  0  2  0  0  0  0  0  0  0  0  0
   -1.0126    0.6253   -1.3712 C   0  0  0  0  0  0  0  0  0  0  0  0
   -2.4779    0.7327   -1.0116 C   0  0  0  0  0  0  0  0  0  0  0  0
   -2.9931    1.6097   -0.0544 C   0  0  0  0  0  0  0  0  0  0  0  0
   -4.3645    1.6854    0.2012 C   0  0  0  0  0  0  0  0  0  0  0  0
   -5.2831    0.8936   -0.4920 C   0  0  0  0  0  0  0  0  0  0  0  0
   -4.7631    0.0115   -1.4521 C   0  0  0  0  0  0  0  0  0  0  0  0
   -3.3985   -0.0686   -1.7018 C   0  0  0  0  0  0  0  0  0  0  0  0
   -6.7876    0.9596   -0.2516 C   0  0  2  0  0  0  0  0  0  0  0  0
   -7.1605    1.9666    0.8521 C   0  0  0  0  0  0  0  0  0  0  0  0
   -8.6791    2.0151    1.0638 C   0  0  1  0  0  0  0  0  0  0  0  0
   -9.3638    2.4432   -0.2406 C   0  0  0  0  0  0  0  0  0  0  0  0
   -9.0275    1.4333   -1.3448 C   0  0  2  0  0  0  0  0  0  0  0  0
   -9.5265    0.0414   -0.9346 C   0  0  0  0  0  0  0  0  0  0  0  0
   -8.8463   -0.3845    0.3743 C   0  0  1  0  0  0  0  0  0  0  0  0
   -7.3261   -0.4279    0.1680 C   0  0  0  0  0  0  0  0  0  0  0  0
   -9.1834    0.6269    1.4771 C   0  0  0  0  0  0  0  0  0  0  0  0
   -7.5081    1.3891   -1.5518 C   0  0  0  0  0  0  0  0  0  0  0  0
    1.5910    4.7548    1.9308 C   0  0  0  0  0  0  0  0  0  0  0  0
    1.5348    5.2113   -0.9426 C   0  0  0  0  0  0  0  0  0  0  0  0
    2.7631    4.0001    1.8197 C   0  0  0  0  0  0  0  0  0  0  0  0
    3.9425    4.4537    2.4044 C   0  0  0  0  0  0  0  0  0  0  0  0
    3.9603    5.6615    3.1045 C   0  0  0  0  0  0  0  0  0  0  0  0
    2.7890    6.4047    3.2354 C   0  0  0  0  0  0  0  0  0  0  0  0
    1.6064    5.9477    2.6541 C   0  0  0  0  0  0  0  0  0  0  0  0
    1.9607    6.5005   -0.6033 C   0  0  0  0  0  0  0  0  0  0  0  0
    3.1747    6.9944   -1.0708 C   0  0  0  0  0  0  0  0  0  0  0  0
    3.9731    6.2121   -1.9071 C   0  0  0  0  0  0  0  0  0  0  0  0
    3.5369    4.9440   -2.2825 C   0  0  0  0  0  0  0  0  0  0  0  0
    2.3229    4.4457   -1.8045 C   0  0  0  0  0  0  0  0  0  0  0  0
    3.7663   -0.9334   -2.1759 C   0  0  0  0  0  0  0  0  0  0  0  0
    4.8042    0.8033    0.0530 C   0  0  0  0  0  0  0  0  0  0  0  0
    4.8977   -0.4456    0.6782 C   0  0  0  0  0  0  0  0  0  0  0  0
    6.0597   -0.8042    1.3539 C   0  0  0  0  0  0  0  0  0  0  0  0
    7.1424    0.0763    1.4079 C   0  0  0  0  0  0  0  0  0  0  0  0
    7.0562    1.3206    0.7883 C   0  0  0  0  0  0  0  0  0  0  0  0
    5.8867    1.6834    0.1183 C   0  0  0  0  0  0  0  0  0  0  0  0
    5.1189   -1.0824   -2.5050 C   0  0  0  0  0  0  0  0  0  0  0  0
    5.6976   -2.3454   -2.5763 C   0  0  0  0  0  0  0  0  0  0  0  0
    4.9239   -3.4807   -2.3293 C   0  0  0  0  0  0  0  0  0  0  0  0
    3.5729   -3.3399   -2.0206 C   0  0  0  0  0  0  0  0  0  0  0  0
    2.9934   -2.0719   -1.9449 C   0  0  0  0  0  0  0  0  0  0  0  0
    0.5586    0.5755    1.7655 H   0  0  0  0  0  0  0  0  0  0  0  0
   -1.1774    0.4506    1.4596 H   0  0  0  0  0  0  0  0  0  0  0  0
    2.0299   -1.3135    1.4356 H   0  0  0  0  0  0  0  0  0  0  0  0
    2.2649   -3.7615    1.2552 H   0  0  0  0  0  0  0  0  0  0  0  0
   -1.8971   -4.0528    0.1725 H   0  0  0  0  0  0  0  0  0  0  0  0
   -2.1132   -1.6211    0.3575 H   0  0  0  0  0  0  0  0  0  0  0  0
    1.6606   -5.6507    2.4202 H   0  0  0  0  0  0  0  0  0  0  0  0
   -0.0582   -5.8558    2.7954 H   0  0  0  0  0  0  0  0  0  0  0  0
    1.1968   -7.9976    3.0984 H   0  0  0  0  0  0  0  0  0  0  0  0
   -0.2567   -9.4421    1.6590 H   0  0  0  0  0  0  0  0  0  0  0  0
   -1.1872   -8.1007    2.3557 H   0  0  0  0  0  0  0  0  0  0  0  0
   -1.6954   -8.3479   -0.0741 H   0  0  0  0  0  0  0  0  0  0  0  0
    0.4946   -9.3445   -0.7644 H   0  0  0  0  0  0  0  0  0  0  0  0
    0.0942   -7.9334   -1.7637 H   0  0  0  0  0  0  0  0  0  0  0  0
    2.4750   -7.8311   -1.0133 H   0  0  0  0  0  0  0  0  0  0  0  0
    1.2158   -5.6946   -1.3185 H   0  0  0  0  0  0  0  0  0  0  0  0
    2.4196   -5.5586   -0.0197 H   0  0  0  0  0  0  0  0  0  0  0  0
    2.9930   -7.5673    1.4153 H   0  0  0  0  0  0  0  0  0  0  0  0
    2.2081   -9.1291    1.1088 H   0  0  0  0  0  0  0  0  0  0  0  0
   -1.2380   -6.0052   -0.7598 H   0  0  0  0  0  0  0  0  0  0  0  0
   -1.7554   -6.0846    0.9371 H   0  0  0  0  0  0  0  0  0  0  0  0
    3.5355    1.0626   -2.8876 H   0  0  0  0  0  0  0  0  0  0  0  0
    3.6491    2.2877   -0.9342 H   0  0  0  0  0  0  0  0  0  0  0  0
   -0.5540    5.3711   -0.5135 H   0  0  0  0  0  0  0  0  0  0  0  0
   -0.5420    4.7333    1.7245 H   0  0  0  0  0  0  0  0  0  0  0  0
   -0.7990    1.2799   -2.2297 H   0  0  0  0  0  0  0  0  0  0  0  0
   -0.7948   -0.3985   -1.7074 H   0  0  0  0  0  0  0  0  0  0  0  0
   -2.3285    2.2516    0.5262 H   0  0  0  0  0  0  0  0  0  0  0  0
   -4.7068    2.3849    0.9631 H   0  0  0  0  0  0  0  0  0  0  0  0
   -5.4380   -0.6321   -2.0206 H   0  0  0  0  0  0  0  0  0  0  0  0
   -3.0300   -0.7726   -2.4523 H   0  0  0  0  0  0  0  0  0  0  0  0
   -6.6632    1.6827    1.7947 H   0  0  0  0  0  0  0  0  0  0  0  0
   -6.7933    2.9693    0.5769 H   0  0  0  0  0  0  0  0  0  0  0  0
   -8.9069    2.7432    1.8579 H   0  0  0  0  0  0  0  0  0  0  0  0
  -10.4552    2.4964   -0.0952 H   0  0  0  0  0  0  0  0  0  0  0  0
   -9.0238    3.4500   -0.5338 H   0  0  0  0  0  0  0  0  0  0  0  0
   -9.5118    1.7377   -2.2859 H   0  0  0  0  0  0  0  0  0  0  0  0
  -10.6209    0.0561   -0.8030 H   0  0  0  0  0  0  0  0  0  0  0  0
   -9.3042   -0.6884   -1.7305 H   0  0  0  0  0  0  0  0  0  0  0  0
   -9.2000   -1.3853    0.6677 H   0  0  0  0  0  0  0  0  0  0  0  0
   -7.0784   -1.1730   -0.6050 H   0  0  0  0  0  0  0  0  0  0  0  0
   -6.8199   -0.7454    1.0948 H   0  0  0  0  0  0  0  0  0  0  0  0
   -8.7126    0.3214    2.4259 H   0  0  0  0  0  0  0  0  0  0  0  0
  -10.2722    0.6548    1.6467 H   0  0  0  0  0  0  0  0  0  0  0  0
   -7.2633    0.6834   -2.3619 H   0  0  0  0  0  0  0  0  0  0  0  0
   -7.1319    2.3779   -1.8628 H   0  0  0  0  0  0  0  0  0  0  0  0
    2.7367    3.0470    1.2864 H   0  0  0  0  0  0  0  0  0  0  0  0
    4.8516    3.8556    2.3174 H   0  0  0  0  0  0  0  0  0  0  0  0
    4.8862    6.0164    3.5600 H   0  0  0  0  0  0  0  0  0  0  0  0
    2.7929    7.3393    3.7985 H   0  0  0  0  0  0  0  0  0  0  0  0
    0.6863    6.5289    2.7591 H   0  0  0  0  0  0  0  0  0  0  0  0
    1.3436    7.1193    0.0522 H   0  0  0  0  0  0  0  0  0  0  0  0
    3.4995    7.9952   -0.7818 H   0  0  0  0  0  0  0  0  0  0  0  0
    4.9251    6.5981   -2.2752 H   0  0  0  0  0  0  0  0  0  0  0  0
    4.1419    4.3357   -2.9586 H   0  0  0  0  0  0  0  0  0  0  0  0
    1.9685    3.4591   -2.1096 H   0  0  0  0  0  0  0  0  0  0  0  0
    4.0610   -1.1434    0.6146 H   0  0  0  0  0  0  0  0  0  0  0  0
    6.1258   -1.7801    1.8372 H   0  0  0  0  0  0  0  0  0  0  0  0
    8.0527   -0.2092    1.9374 H   0  0  0  0  0  0  0  0  0  0  0  0
    7.8964    2.0152    0.8319 H   0  0  0  0  0  0  0  0  0  0  0  0
    5.8069    2.6664   -0.3541 H   0  0  0  0  0  0  0  0  0  0  0  0
    5.7292   -0.1945   -2.6899 H   0  0  0  0  0  0  0  0  0  0  0  0
    6.7552   -2.4452   -2.8252 H   0  0  0  0  0  0  0  0  0  0  0  0
    5.3732   -4.4734   -2.3868 H   0  0  0  0  0  0  0  0  0  0  0  0
    2.9565   -4.2205   -1.8368 H   0  0  0  0  0  0  0  0  0  0  0  0
    1.9341   -1.9685   -1.7037 H   0  0  0  0  0  0  0  0  0  0  0  0
  1  2  1  1  0  0  0
  1 20  1  0  0  0  0
  1 25  1  0  0  0  0
  1 29  1  0  0  0  0
  2  3  1  0  0  0  0
  2 70  1  0  0  0  0
  2 71  1  0  0  0  0
  3  4  2  0  0  0  0
  3  8  1  0  0  0  0
  4  5  1  0  0  0  0
  4 72  1  0  0  0  0
  5  6  2  0  0  0  0
  5 73  1  0  0  0  0
  6  7  1  0  0  0  0
  7  8  2  0  0  0  0
  7 74  1  0  0  0  0
  8 75  1  0  0  0  0
  9  6  1  1  0  0  0
  9 10  1  0  0  0  0
  9 16  1  0  0  0  0
  9 18  1  0  0  0  0
 10 11  1  0  0  0  0
 10 76  1  0  0  0  0
 10 77  1  0  0  0  0
 11 12  1  0  0  0  0
 11 17  1  0  0  0  0
 11 78  1  1  0  0  0
 12 13  1  0  0  0  0
 12 79  1  0  0  0  0
 12 80  1  0  0  0  0
 13 14  1  0  0  0  0
 13 18  1  0  0  0  0
 13 81  1  6  0  0  0
 14 15  1  0  0  0  0
 14 82  1  0  0  0  0
 14 83  1  0  0  0  0
 15 16  1  0  0  0  0
 15 17  1  0  0  0  0
 15 84  1  6  0  0  0
 16 85  1  0  0  0  0
 16 86  1  0  0  0  0
 17 87  1  0  0  0  0
 17 88  1  0  0  0  0
 18 89  1  0  0  0  0
 18 90  1  0  0  0  0
 19 20  1  0  0  0  0
 19 23  1  0  0  0  0
 20 21  2  0  0  0  0
 21 22  1  0  0  0  0
 22 23  1  0  0  0  0
 22 58  1  0  0  0  0
 22 91  1  6  0  0  0
 23 59  1  0  0  0  0
 23 92  1  6  0  0  0
 24 25  1  0  0  0  0
 24 28  1  0  0  0  0
 25 26  2  0  0  0  0
 26 27  1  0  0  0  0
 27 28  1  0  0  0  0
 27 47  1  0  0  0  0
 27 93  1  6  0  0  0
 28 46  1  0  0  0  0
 28 94  1  1  0  0  0
 29 30  1  0  0  0  0
 29 95  1  0  0  0  0
 29 96  1  0  0  0  0
 30 31  2  0  0  0  0
 30 35  1  0  0  0  0
 31 32  1  0  0  0  0
 31 97  1  0  0  0  0
 32 33  2  0  0  0  0
 32 98  1  0  0  0  0
 33 34  1  0  0  0  0
 34 35  2  0  0  0  0
 34 99  1  0  0  0  0
 35100  1  0  0  0  0
 36 33  1  6  0  0  0
 36 37  1  0  0  0  0
 36 43  1  0  0  0  0
 36 45  1  0  0  0  0
 37 38  1  0  0  0  0
 37101  1  0  0  0  0
 37102  1  0  0  0  0
 38 39  1  0  0  0  0
 38 44  1  0  0  0  0
 38103  1  1  0  0  0
 39 40  1  0  0  0  0
 39104  1  0  0  0  0
 39105  1  0  0  0  0
 40 41  1  0  0  0  0
 40 45  1  0  0  0  0
 40106  1  6  0  0  0
 41 42  1  0  0  0  0
 41107  1  0  0  0  0
 41108  1  0  0  0  0
 42 43  1  0  0  0  0
 42 44  1  0  0  0  0
 42109  1  1  0  0  0
 43110  1  0  0  0  0
 43111  1  0  0  0  0
 44112  1  0  0  0  0
 44113  1  0  0  0  0
 45114  1  0  0  0  0
 45115  1  0  0  0  0
 46 48  2  0  0  0  0
 46 52  1  0  0  0  0
 47 53  2  0  0  0  0
 47 57  1  0  0  0  0
 48 49  1  0  0  0  0
 48116  1  0  0  0  0
 49 50  2  0  0  0  0
 49117  1  0  0  0  0
 50 51  1  0  0  0  0
 50118  1  0  0  0  0
 51 52  2  0  0  0  0
 51119  1  0  0  0  0
 52120  1  0  0  0  0
 53 54  1  0  0  0  0
 53121  1  0  0  0  0
 54 55  2  0  0  0  0
 54122  1  0  0  0  0
 55 56  1  0  0  0  0
 55123  1  0  0  0  0
 56 57  2  0  0  0  0
 56124  1  0  0  0  0
 57125  1  0  0  0  0
 58 65  2  0  0  0  0
 58 69  1  0  0  0  0
 59 60  2  0  0  0  0
 59 64  1  0  0  0  0
 60 61  1  0  0  0  0
 60126  1  0  0  0  0
 61 62  2  0  0  0  0
 61127  1  0  0  0  0
 62 63  1  0  0  0  0
 62128  1  0  0  0  0
 63 64  2  0  0  0  0
 63129  1  0  0  0  0
 64130  1  0  0  0  0
 65 66  1  0  0  0  0
 65131  1  0  0  0  0
 66 67  2  0  0  0  0
 66132  1  0  0  0  0
 67 68  1  0  0  0  0
 67133  1  0  0  0  0
 68 69  2  0  0  0  0
 68134  1  0  0  0  0
 69135  1  0  0  0  0
M  END
$$$$
