Title Card Required
 OpenBabel03192317473D

 54 58  0  0  1  0  0  0  0  0999 V2000
   -1.1958    1.3978    0.1643 C   0  0  0  0  0  0  0  0  0  0  0  0
   -1.1954   -0.0012    0.1637 C   0  0  0  0  0  0  0  0  0  0  0  0
   -0.0002   -0.7049    0.0004 C   0  0  0  0  0  0  0  0  0  0  0  0
    1.1949   -0.0010   -0.1624 C   0  0  0  0  0  0  0  0  0  0  0  0
    1.1952    1.3979   -0.1621 C   0  0  0  0  0  0  0  0  0  0  0  0
   -0.0003    2.0928    0.0013 C   0  0  0  0  0  0  0  0  0  0  0  0
   -2.4722   -0.7191    0.3383 C   0  0  0  0  0  0  0  0  0  0  0  0
    2.4717   -0.7188   -0.3374 C   0  0  0  0  0  0  0  0  0  0  0  0
   -2.3883   -2.0667    0.4433 O   0  0  0  0  0  0  0  0  0  0  0  0
   -3.7291   -2.5492    0.5302 C   0  0  0  0  0  0  0  0  0  0  0  0
   -4.5882   -1.2608    0.6009 C   0  0  1  0  0  0  0  0  0  0  0  0
   -3.6209   -0.1846    0.4067 N   0  0  0  0  0  0  0  0  0  0  0  0
    3.6204   -0.1842   -0.4056 N   0  0  0  0  0  0  0  0  0  0  0  0
    4.5876   -1.2603   -0.6009 C   0  0  2  0  0  0  0  0  0  0  0  0
    3.7287   -2.5487   -0.5302 C   0  0  0  0  0  0  0  0  0  0  0  0
    2.3878   -2.0663   -0.4436 O   0  0  0  0  0  0  0  0  0  0  0  0
   -5.7063   -1.2281   -0.4473 C   0  0  0  0  0  0  0  0  0  0  0  0
    5.7065   -1.2281    0.4465 C   0  0  0  0  0  0  0  0  0  0  0  0
   -6.5956   -0.0156   -0.3365 C   0  0  0  0  0  0  0  0  0  0  0  0
    6.5960   -0.0158    0.3356 C   0  0  0  0  0  0  0  0  0  0  0  0
   -6.1643    1.2307   -0.8076 C   0  0  0  0  0  0  0  0  0  0  0  0
   -6.9748    2.3559   -0.6821 C   0  0  0  0  0  0  0  0  0  0  0  0
   -8.2295    2.2558   -0.0798 C   0  0  0  0  0  0  0  0  0  0  0  0
   -8.6673    1.0217    0.3959 C   0  0  0  0  0  0  0  0  0  0  0  0
   -7.8538   -0.1038    0.2671 C   0  0  0  0  0  0  0  0  0  0  0  0
    6.1651    1.2306    0.8069 C   0  0  0  0  0  0  0  0  0  0  0  0
    6.9757    2.3556    0.6814 C   0  0  0  0  0  0  0  0  0  0  0  0
    8.2304    2.2553    0.0788 C   0  0  0  0  0  0  0  0  0  0  0  0
    8.6678    1.0212   -0.3972 C   0  0  0  0  0  0  0  0  0  0  0  0
    7.8541   -0.1042   -0.2683 C   0  0  0  0  0  0  0  0  0  0  0  0
   -2.1462    1.9166    0.2975 H   0  0  0  0  0  0  0  0  0  0  0  0
   -0.0002   -1.7944    0.0001 H   0  0  0  0  0  0  0  0  0  0  0  0
    2.1456    1.9169   -0.2950 H   0  0  0  0  0  0  0  0  0  0  0  0
   -0.0003    3.1833    0.0017 H   0  0  0  0  0  0  0  0  0  0  0  0
   -3.8177   -3.1908    1.4162 H   0  0  0  0  0  0  0  0  0  0  0  0
   -3.9486   -3.1462   -0.3693 H   0  0  0  0  0  0  0  0  0  0  0  0
   -5.0493   -1.1383    1.5955 H   0  0  0  0  0  0  0  0  0  0  0  0
    5.0480   -1.1373   -1.5958 H   0  0  0  0  0  0  0  0  0  0  0  0
    3.8175   -3.1905   -1.4161 H   0  0  0  0  0  0  0  0  0  0  0  0
    3.9481   -3.1456    0.3694 H   0  0  0  0  0  0  0  0  0  0  0  0
   -5.2359   -1.2695   -1.4432 H   0  0  0  0  0  0  0  0  0  0  0  0
   -6.3120   -2.1412   -0.3341 H   0  0  0  0  0  0  0  0  0  0  0  0
    5.2369   -1.2699    1.4427 H   0  0  0  0  0  0  0  0  0  0  0  0
    6.3120   -2.1413    0.3325 H   0  0  0  0  0  0  0  0  0  0  0  0
   -5.1769    1.3118   -1.2648 H   0  0  0  0  0  0  0  0  0  0  0  0
   -6.6248    3.3193   -1.0571 H   0  0  0  0  0  0  0  0  0  0  0  0
   -8.8650    3.1378    0.0147 H   0  0  0  0  0  0  0  0  0  0  0  0
   -9.6483    0.9313    0.8657 H   0  0  0  0  0  0  0  0  0  0  0  0
   -8.2057   -1.0707    0.6363 H   0  0  0  0  0  0  0  0  0  0  0  0
    5.1778    1.3118    1.2643 H   0  0  0  0  0  0  0  0  0  0  0  0
    6.6261    3.3190    1.0566 H   0  0  0  0  0  0  0  0  0  0  0  0
    8.8659    3.1372   -0.0157 H   0  0  0  0  0  0  0  0  0  0  0  0
    9.6486    0.9307   -0.8671 H   0  0  0  0  0  0  0  0  0  0  0  0
    8.2058   -1.0710   -0.6377 H   0  0  0  0  0  0  0  0  0  0  0  0
  1  2  2  0  0  0  0
  1  6  1  0  0  0  0
  1 31  1  0  0  0  0
  2  3  1  0  0  0  0
  2  7  1  0  0  0  0
  3  4  2  0  0  0  0
  3 32  1  0  0  0  0
  4  5  1  0  0  0  0
  4  8  1  0  0  0  0
  5  6  2  0  0  0  0
  5 33  1  0  0  0  0
  6 34  1  0  0  0  0
  7  9  1  0  0  0  0
  7 12  2  0  0  0  0
  8 13  2  0  0  0  0
  8 16  1  0  0  0  0
  9 10  1  0  0  0  0
 10 11  1  0  0  0  0
 10 35  1  0  0  0  0
 10 36  1  0  0  0  0
 11 12  1  0  0  0  0
 11 17  1  0  0  0  0
 11 37  1  1  0  0  0
 13 14  1  0  0  0  0
 14 15  1  0  0  0  0
 14 18  1  0  0  0  0
 14 38  1  6  0  0  0
 15 16  1  0  0  0  0
 15 39  1  0  0  0  0
 15 40  1  0  0  0  0
 17 19  1  0  0  0  0
 17 41  1  0  0  0  0
 17 42  1  0  0  0  0
 18 20  1  0  0  0  0
 18 43  1  0  0  0  0
 18 44  1  0  0  0  0
 19 21  2  0  0  0  0
 19 25  1  0  0  0  0
 20 26  2  0  0  0  0
 20 30  1  0  0  0  0
 21 22  1  0  0  0  0
 21 45  1  0  0  0  0
 22 23  2  0  0  0  0
 22 46  1  0  0  0  0
 23 24  1  0  0  0  0
 23 47  1  0  0  0  0
 24 25  2  0  0  0  0
 24 48  1  0  0  0  0
 25 49  1  0  0  0  0
 26 27  1  0  0  0  0
 26 50  1  0  0  0  0
 27 28  2  0  0  0  0
 27 51  1  0  0  0  0
 28 29  1  0  0  0  0
 28 52  1  0  0  0  0
 29 30  2  0  0  0  0
 29 53  1  0  0  0  0
 30 54  1  0  0  0  0
M  END
$$$$
