Title Card Required
 OpenBabel03192317513D

 57 61  0  0  1  0  0  0  0  0999 V2000
   -3.1682    2.7464    0.5328 C   0  0  0  0  0  0  0  0  0  0  0  0
   -3.0602    4.0912    0.1850 C   0  0  0  0  0  0  0  0  0  0  0  0
   -1.8103    4.6403   -0.1040 C   0  0  0  0  0  0  0  0  0  0  0  0
   -0.6718    3.8386   -0.0378 C   0  0  0  0  0  0  0  0  0  0  0  0
   -0.7747    2.4910    0.3097 C   0  0  0  0  0  0  0  0  0  0  0  0
   -2.0285    1.9321    0.5880 C   0  0  0  0  0  0  0  0  0  0  0  0
   -3.8687    0.0250   -1.1404 C   0  0  0  0  0  0  0  0  0  0  0  0
   -4.8051   -0.6469   -1.9263 C   0  0  0  0  0  0  0  0  0  0  0  0
   -5.3803   -1.8343   -1.4730 C   0  0  0  0  0  0  0  0  0  0  0  0
   -5.0248   -2.3439   -0.2248 C   0  0  0  0  0  0  0  0  0  0  0  0
   -4.0920   -1.6679    0.5599 C   0  0  0  0  0  0  0  0  0  0  0  0
   -3.4920   -0.4842    0.1089 C   0  0  0  0  0  0  0  0  0  0  0  0
   -2.1463    0.1979    1.1899 P   0  0  0  0  0  0  0  0  0  0  0  0
   -0.4885   -0.5325   -0.9370 C   0  0  0  0  0  0  0  0  0  0  0  0
   -0.6161   -1.9487   -1.4950 C   0  0  0  0  0  0  0  0  0  0  0  0
    0.2890   -2.9062   -0.7188 C   0  0  0  0  0  0  0  0  0  0  0  0
   -0.0247   -2.8457    0.7746 C   0  0  0  0  0  0  0  0  0  0  0  0
    0.0611   -1.3987    1.2912 C   0  0  2  0  0  0  0  0  0  0  0  0
   -0.7479   -0.4978    0.4996 N   0  0  0  0  0  0  0  0  0  0  0  0
    3.3980    0.1772    1.2453 C   0  0  2  0  0  0  0  0  0  0  0  0
    3.6224   -1.1624    2.0095 C   0  0  0  0  0  0  0  0  0  0  0  0
    2.3382   -1.7869    1.9852 O   0  0  0  0  0  0  0  0  0  0  0  0
    1.4965   -0.9288    1.3648 C   0  0  0  0  0  0  0  0  0  0  0  0
    1.9700    0.1644    0.9317 N   0  0  0  0  0  0  0  0  0  0  0  0
    4.2662    0.3011    0.0102 C   0  0  0  0  0  0  0  0  0  0  0  0
    3.8551   -0.2368   -1.2124 C   0  0  0  0  0  0  0  0  0  0  0  0
    4.6905   -0.1787   -2.3266 C   0  0  0  0  0  0  0  0  0  0  0  0
    5.9476    0.4177   -2.2316 C   0  0  0  0  0  0  0  0  0  0  0  0
    6.3627    0.9605   -1.0165 C   0  0  0  0  0  0  0  0  0  0  0  0
    5.5242    0.9039    0.0958 C   0  0  0  0  0  0  0  0  0  0  0  0
   -4.1516    2.3229    0.7560 H   0  0  0  0  0  0  0  0  0  0  0  0
   -3.9558    4.7136    0.1415 H   0  0  0  0  0  0  0  0  0  0  0  0
   -1.7254    5.6935   -0.3769 H   0  0  0  0  0  0  0  0  0  0  0  0
    0.3093    4.2639   -0.2569 H   0  0  0  0  0  0  0  0  0  0  0  0
    0.1218    1.8660    0.3745 H   0  0  0  0  0  0  0  0  0  0  0  0
   -3.4277    0.9570   -1.5032 H   0  0  0  0  0  0  0  0  0  0  0  0
   -5.0863   -0.2417   -2.9000 H   0  0  0  0  0  0  0  0  0  0  0  0
   -6.1115   -2.3587   -2.0903 H   0  0  0  0  0  0  0  0  0  0  0  0
   -5.4796   -3.2657    0.1417 H   0  0  0  0  0  0  0  0  0  0  0  0
   -3.8189   -2.0638    1.5423 H   0  0  0  0  0  0  0  0  0  0  0  0
    0.5263   -0.1401   -1.1273 H   0  0  0  0  0  0  0  0  0  0  0  0
   -1.1882    0.1507   -1.4372 H   0  0  0  0  0  0  0  0  0  0  0  0
   -0.3607   -1.9514   -2.5659 H   0  0  0  0  0  0  0  0  0  0  0  0
   -1.6670   -2.2747   -1.4052 H   0  0  0  0  0  0  0  0  0  0  0  0
    0.1797   -3.9360   -1.0891 H   0  0  0  0  0  0  0  0  0  0  0  0
    1.3466   -2.6266   -0.8789 H   0  0  0  0  0  0  0  0  0  0  0  0
   -1.0571   -3.1907    0.9467 H   0  0  0  0  0  0  0  0  0  0  0  0
    0.6501   -3.4899    1.3548 H   0  0  0  0  0  0  0  0  0  0  0  0
   -0.3091   -1.3750    2.3297 H   0  0  0  0  0  0  0  0  0  0  0  0
    3.6110    1.0370    1.8991 H   0  0  0  0  0  0  0  0  0  0  0  0
    4.3481   -1.8196    1.5113 H   0  0  0  0  0  0  0  0  0  0  0  0
    3.9231   -1.0149    3.0558 H   0  0  0  0  0  0  0  0  0  0  0  0
    2.8651   -0.6907   -1.2900 H   0  0  0  0  0  0  0  0  0  0  0  0
    4.3550   -0.5976   -3.2768 H   0  0  0  0  0  0  0  0  0  0  0  0
    6.6002    0.4632   -3.1047 H   0  0  0  0  0  0  0  0  0  0  0  0
    7.3416    1.4358   -0.9343 H   0  0  0  0  0  0  0  0  0  0  0  0
    5.8502    1.3387    1.0442 H   0  0  0  0  0  0  0  0  0  0  0  0
  1  2  2  0  0  0  0
  1  6  1  0  0  0  0
  1 31  1  0  0  0  0
  2  3  1  0  0  0  0
  2 32  1  0  0  0  0
  3  4  2  0  0  0  0
  3 33  1  0  0  0  0
  4  5  1  0  0  0  0
  4 34  1  0  0  0  0
  5  6  2  0  0  0  0
  5 35  1  0  0  0  0
  6 13  1  0  0  0  0
  7  8  2  0  0  0  0
  7 12  1  0  0  0  0
  7 36  1  0  0  0  0
  8  9  1  0  0  0  0
  8 37  1  0  0  0  0
  9 10  2  0  0  0  0
  9 38  1  0  0  0  0
 10 11  1  0  0  0  0
 10 39  1  0  0  0  0
 11 12  2  0  0  0  0
 11 40  1  0  0  0  0
 12 13  1  0  0  0  0
 13 19  1  0  0  0  0
 14 15  1  0  0  0  0
 14 19  1  0  0  0  0
 14 41  1  0  0  0  0
 14 42  1  0  0  0  0
 15 16  1  0  0  0  0
 15 43  1  0  0  0  0
 15 44  1  0  0  0  0
 16 17  1  0  0  0  0
 16 45  1  0  0  0  0
 16 46  1  0  0  0  0
 17 18  1  0  0  0  0
 17 47  1  0  0  0  0
 17 48  1  0  0  0  0
 18 19  1  0  0  0  0
 18 23  1  0  0  0  0
 18 49  1  1  0  0  0
 20 21  1  0  0  0  0
 20 24  1  0  0  0  0
 20 25  1  0  0  0  0
 20 50  1  1  0  0  0
 21 22  1  0  0  0  0
 21 51  1  0  0  0  0
 21 52  1  0  0  0  0
 22 23  1  0  0  0  0
 23 24  2  0  0  0  0
 25 26  2  0  0  0  0
 25 30  1  0  0  0  0
 26 27  1  0  0  0  0
 26 53  1  0  0  0  0
 27 28  2  0  0  0  0
 27 54  1  0  0  0  0
 28 29  1  0  0  0  0
 28 55  1  0  0  0  0
 29 30  2  0  0  0  0
 29 56  1  0  0  0  0
 30 57  1  0  0  0  0
M  END
$$$$
