Title Card Required
 OpenBabel03192317523D

 60 64  0  0  1  0  0  0  0  0999 V2000
   -2.9912    1.1408   -0.5462 C   0  0  0  0  0  0  0  0  0  0  0  0
   -3.4837    2.3535   -0.0716 C   0  0  0  0  0  0  0  0  0  0  0  0
   -4.8543    2.6169   -0.1046 C   0  0  0  0  0  0  0  0  0  0  0  0
   -5.7262    1.6577   -0.6146 C   0  0  0  0  0  0  0  0  0  0  0  0
   -5.2293    0.4420   -1.0867 C   0  0  0  0  0  0  0  0  0  0  0  0
   -3.8591    0.1678   -1.0599 C   0  0  0  0  0  0  0  0  0  0  0  0
   -3.3244   -1.1599   -1.5344 C   0  0  0  0  0  0  0  0  0  0  0  0
    0.4149    2.9380   -0.1770 C   0  0  0  0  0  0  0  0  0  0  0  0
    0.6059    4.2369    0.2994 C   0  0  0  0  0  0  0  0  0  0  0  0
    1.7512    4.5469    1.0285 C   0  0  0  0  0  0  0  0  0  0  0  0
    2.7104    3.5612    1.2745 C   0  0  0  0  0  0  0  0  0  0  0  0
    2.5208    2.2675    0.7967 C   0  0  0  0  0  0  0  0  0  0  0  0
    1.3634    1.9422    0.0767 C   0  0  0  0  0  0  0  0  0  0  0  0
    3.6274   -0.9262   -0.2714 C   0  0  0  0  0  0  0  0  0  0  0  0
    4.8978   -1.2621   -0.7397 C   0  0  0  0  0  0  0  0  0  0  0  0
    5.2880   -0.9023   -2.0290 C   0  0  0  0  0  0  0  0  0  0  0  0
    4.4002   -0.2109   -2.8543 C   0  0  0  0  0  0  0  0  0  0  0  0
    3.1265    0.1121   -2.3915 C   0  0  0  0  0  0  0  0  0  0  0  0
    2.7333   -0.2308   -1.0920 C   0  0  0  0  0  0  0  0  0  0  0  0
    1.0248    0.2452   -0.5643 P   0  0  0  0  0  0  0  0  0  0  0  0
    0.2907   -0.0737    2.1153 C   0  0  0  0  0  0  0  0  0  0  0  0
    0.5870   -0.9125    3.3546 C   0  0  0  0  0  0  0  0  0  0  0  0
    0.1587   -2.3625    3.1504 C   0  0  0  0  0  0  0  0  0  0  0  0
    0.8541   -2.9337    1.9191 C   0  0  0  0  0  0  0  0  0  0  0  0
    0.5921   -2.0623    0.6809 C   0  0  2  0  0  0  0  0  0  0  0  0
    0.9317   -0.6671    0.9357 N   0  0  0  0  0  0  0  0  0  0  0  0
   -2.3851   -3.4632   -0.8689 C   0  0  0  0  0  0  0  0  0  0  0  0
   -2.9368   -2.1000   -0.3822 C   0  0  1  0  0  0  0  0  0  0  0  0
   -1.8267   -1.5314    0.3806 N   0  0  0  0  0  0  0  0  0  0  0  0
   -0.8205   -2.2749    0.1862 C   0  0  0  0  0  0  0  0  0  0  0  0
   -0.9944   -3.4037   -0.5423 O   0  0  0  0  0  0  0  0  0  0  0  0
   -1.9221    0.9214   -0.5121 H   0  0  0  0  0  0  0  0  0  0  0  0
   -2.7926    3.0965    0.3326 H   0  0  0  0  0  0  0  0  0  0  0  0
   -5.2403    3.5675    0.2671 H   0  0  0  0  0  0  0  0  0  0  0  0
   -6.7991    1.8546   -0.6470 H   0  0  0  0  0  0  0  0  0  0  0  0
   -5.9193   -0.3051   -1.4876 H   0  0  0  0  0  0  0  0  0  0  0  0
   -4.0803   -1.6634   -2.1574 H   0  0  0  0  0  0  0  0  0  0  0  0
   -2.4260   -1.0093   -2.1559 H   0  0  0  0  0  0  0  0  0  0  0  0
   -0.4791    2.6955   -0.7572 H   0  0  0  0  0  0  0  0  0  0  0  0
   -0.1408    5.0067    0.0969 H   0  0  0  0  0  0  0  0  0  0  0  0
    1.9032    5.5609    1.4023 H   0  0  0  0  0  0  0  0  0  0  0  0
    3.6124    3.8064    1.8377 H   0  0  0  0  0  0  0  0  0  0  0  0
    3.2752    1.4985    0.9797 H   0  0  0  0  0  0  0  0  0  0  0  0
    3.3131   -1.1939    0.7403 H   0  0  0  0  0  0  0  0  0  0  0  0
    5.5879   -1.8073   -0.0931 H   0  0  0  0  0  0  0  0  0  0  0  0
    6.2820   -1.1662   -2.3938 H   0  0  0  0  0  0  0  0  0  0  0  0
    4.6985    0.0689   -3.8661 H   0  0  0  0  0  0  0  0  0  0  0  0
    2.4258    0.6384   -3.0460 H   0  0  0  0  0  0  0  0  0  0  0  0
   -0.8018    0.0176    1.9794 H   0  0  0  0  0  0  0  0  0  0  0  0
    0.6976    0.9353    2.2571 H   0  0  0  0  0  0  0  0  0  0  0  0
    0.0727   -0.4696    4.2206 H   0  0  0  0  0  0  0  0  0  0  0  0
    1.6706   -0.8767    3.5585 H   0  0  0  0  0  0  0  0  0  0  0  0
    0.3962   -2.9710    4.0357 H   0  0  0  0  0  0  0  0  0  0  0  0
   -0.9345   -2.4037    3.0111 H   0  0  0  0  0  0  0  0  0  0  0  0
    1.9428   -2.9610    2.0855 H   0  0  0  0  0  0  0  0  0  0  0  0
    0.5254   -3.9613    1.7038 H   0  0  0  0  0  0  0  0  0  0  0  0
    1.2412   -2.4347   -0.1303 H   0  0  0  0  0  0  0  0  0  0  0  0
   -2.8350   -4.3199   -0.3466 H   0  0  0  0  0  0  0  0  0  0  0  0
   -2.4868   -3.6086   -1.9536 H   0  0  0  0  0  0  0  0  0  0  0  0
   -3.8089   -2.2258    0.2776 H   0  0  0  0  0  0  0  0  0  0  0  0
  1  2  2  0  0  0  0
  1  6  1  0  0  0  0
  1 32  1  0  0  0  0
  2  3  1  0  0  0  0
  2 33  1  0  0  0  0
  3  4  2  0  0  0  0
  3 34  1  0  0  0  0
  4  5  1  0  0  0  0
  4 35  1  0  0  0  0
  5  6  2  0  0  0  0
  5 36  1  0  0  0  0
  6  7  1  0  0  0  0
  7 28  1  0  0  0  0
  7 37  1  0  0  0  0
  7 38  1  0  0  0  0
  8  9  2  0  0  0  0
  8 13  1  0  0  0  0
  8 39  1  0  0  0  0
  9 10  1  0  0  0  0
  9 40  1  0  0  0  0
 10 11  2  0  0  0  0
 10 41  1  0  0  0  0
 11 12  1  0  0  0  0
 11 42  1  0  0  0  0
 12 13  2  0  0  0  0
 12 43  1  0  0  0  0
 13 20  1  0  0  0  0
 14 15  2  0  0  0  0
 14 19  1  0  0  0  0
 14 44  1  0  0  0  0
 15 16  1  0  0  0  0
 15 45  1  0  0  0  0
 16 17  2  0  0  0  0
 16 46  1  0  0  0  0
 17 18  1  0  0  0  0
 17 47  1  0  0  0  0
 18 19  2  0  0  0  0
 18 48  1  0  0  0  0
 19 20  1  0  0  0  0
 20 26  1  0  0  0  0
 21 22  1  0  0  0  0
 21 26  1  0  0  0  0
 21 49  1  0  0  0  0
 21 50  1  0  0  0  0
 22 23  1  0  0  0  0
 22 51  1  0  0  0  0
 22 52  1  0  0  0  0
 23 24  1  0  0  0  0
 23 53  1  0  0  0  0
 23 54  1  0  0  0  0
 24 25  1  0  0  0  0
 24 55  1  0  0  0  0
 24 56  1  0  0  0  0
 25 26  1  0  0  0  0
 25 30  1  0  0  0  0
 25 57  1  6  0  0  0
 27 28  1  0  0  0  0
 27 31  1  0  0  0  0
 27 58  1  0  0  0  0
 27 59  1  0  0  0  0
 28 29  1  0  0  0  0
 28 60  1  1  0  0  0
 29 30  2  0  0  0  0
 30 31  1  0  0  0  0
M  END
$$$$
