Title Card Required
 OpenBabel03192317473D

 60 64  0  0  1  0  0  0  0  0999 V2000
    2.8847    0.6652   -0.4671 C   0  0  2  0  0  0  0  0  0  0  0  0
    2.8540   -0.5286    0.4885 C   0  0  2  0  0  0  0  0  0  0  0  0
    1.7178    0.6469   -1.4018 C   0  0  0  0  0  0  0  0  0  0  0  0
    1.6292   -0.5196    1.3524 C   0  0  0  0  0  0  0  0  0  0  0  0
    1.3767    1.8449   -1.9272 O   0  0  0  0  0  0  0  0  0  0  0  0
    0.3662    1.5716   -2.9007 C   0  0  0  0  0  0  0  0  0  0  0  0
   -0.0614    0.1229   -2.5748 C   0  0  1  0  0  0  0  0  0  0  0  0
    1.0556   -0.3711   -1.7617 N   0  0  0  0  0  0  0  0  0  0  0  0
    0.7375    0.3787    1.4170 N   0  0  0  0  0  0  0  0  0  0  0  0
   -0.2172   -0.0237    2.4541 C   0  0  2  0  0  0  0  0  0  0  0  0
    0.3227   -1.3958    2.9366 C   0  0  0  0  0  0  0  0  0  0  0  0
    1.5242   -1.5793    2.1881 O   0  0  0  0  0  0  0  0  0  0  0  0
    4.1088   -0.5645    1.3777 C   0  0  0  0  0  0  0  0  0  0  0  0
    5.3889   -0.5391    0.5466 C   0  0  0  0  0  0  0  0  0  0  0  0
    5.4190    0.6785   -0.3751 C   0  0  0  0  0  0  0  0  0  0  0  0
    4.1901    0.7006   -1.2796 C   0  0  0  0  0  0  0  0  0  0  0  0
   -1.3599    0.1055   -1.7611 C   0  0  0  0  0  0  0  0  0  0  0  0
   -1.6485   -0.1332    1.9421 C   0  0  0  0  0  0  0  0  0  0  0  0
   -1.9419   -1.2420   -1.4036 C   0  0  0  0  0  0  0  0  0  0  0  0
   -2.3078    1.1325    1.4447 C   0  0  0  0  0  0  0  0  0  0  0  0
   -1.1468   -2.3505   -1.0748 C   0  0  0  0  0  0  0  0  0  0  0  0
   -1.7347   -3.5499   -0.6721 C   0  0  0  0  0  0  0  0  0  0  0  0
   -3.1214   -3.6677   -0.5862 C   0  0  0  0  0  0  0  0  0  0  0  0
   -3.9216   -2.5759   -0.9199 C   0  0  0  0  0  0  0  0  0  0  0  0
   -3.3342   -1.3794   -1.3286 C   0  0  0  0  0  0  0  0  0  0  0  0
   -3.6615    1.0742    1.0845 C   0  0  0  0  0  0  0  0  0  0  0  0
   -4.3193    2.1907    0.5761 C   0  0  0  0  0  0  0  0  0  0  0  0
   -3.6318    3.3956    0.4226 C   0  0  0  0  0  0  0  0  0  0  0  0
   -2.2887    3.4678    0.7843 C   0  0  0  0  0  0  0  0  0  0  0  0
   -1.6285    2.3458    1.2900 C   0  0  0  0  0  0  0  0  0  0  0  0
    2.8017    1.5937    0.1214 H   0  0  0  0  0  0  0  0  0  0  0  0
    2.8152   -1.4551   -0.1101 H   0  0  0  0  0  0  0  0  0  0  0  0
    0.8089    1.6702   -3.9039 H   0  0  0  0  0  0  0  0  0  0  0  0
   -0.4425    2.3046   -2.7828 H   0  0  0  0  0  0  0  0  0  0  0  0
   -0.1737   -0.4885   -3.4826 H   0  0  0  0  0  0  0  0  0  0  0  0
   -0.1836    0.7265    3.2625 H   0  0  0  0  0  0  0  0  0  0  0  0
    0.5639   -1.4252    4.0074 H   0  0  0  0  0  0  0  0  0  0  0  0
   -0.3685   -2.2190    2.6985 H   0  0  0  0  0  0  0  0  0  0  0  0
    4.0878    0.3140    2.0464 H   0  0  0  0  0  0  0  0  0  0  0  0
    4.0695   -1.4562    2.0184 H   0  0  0  0  0  0  0  0  0  0  0  0
    6.2669   -0.5457    1.2093 H   0  0  0  0  0  0  0  0  0  0  0  0
    5.4425   -1.4571   -0.0634 H   0  0  0  0  0  0  0  0  0  0  0  0
    5.4380    1.5972    0.2359 H   0  0  0  0  0  0  0  0  0  0  0  0
    6.3353    0.6816   -0.9839 H   0  0  0  0  0  0  0  0  0  0  0  0
    4.2050   -0.1794   -1.9453 H   0  0  0  0  0  0  0  0  0  0  0  0
    4.1859    1.5927   -1.9229 H   0  0  0  0  0  0  0  0  0  0  0  0
   -1.1561    0.6696   -0.8325 H   0  0  0  0  0  0  0  0  0  0  0  0
   -2.1237    0.6811   -2.3081 H   0  0  0  0  0  0  0  0  0  0  0  0
   -1.6638   -0.8807    1.1299 H   0  0  0  0  0  0  0  0  0  0  0  0
   -2.2678   -0.5565    2.7512 H   0  0  0  0  0  0  0  0  0  0  0  0
   -0.0616   -2.2561   -1.1245 H   0  0  0  0  0  0  0  0  0  0  0  0
   -1.0991   -4.4009   -0.4199 H   0  0  0  0  0  0  0  0  0  0  0  0
   -3.5765   -4.6068   -0.2673 H   0  0  0  0  0  0  0  0  0  0  0  0
   -5.0089   -2.6566   -0.8679 H   0  0  0  0  0  0  0  0  0  0  0  0
   -3.9665   -0.5259   -1.5859 H   0  0  0  0  0  0  0  0  0  0  0  0
   -4.1994    0.1297    1.2004 H   0  0  0  0  0  0  0  0  0  0  0  0
   -5.3734    2.1225    0.3008 H   0  0  0  0  0  0  0  0  0  0  0  0
   -4.1427    4.2736    0.0241 H   0  0  0  0  0  0  0  0  0  0  0  0
   -1.7417    4.4049    0.6664 H   0  0  0  0  0  0  0  0  0  0  0  0
   -0.5658    2.4035    1.5252 H   0  0  0  0  0  0  0  0  0  0  0  0
  1  2  1  0  0  0  0
  1  3  1  0  0  0  0
  1 16  1  0  0  0  0
  1 31  1  1  0  0  0
  2  4  1  0  0  0  0
  2 13  1  0  0  0  0
  2 32  1  6  0  0  0
  3  5  1  0  0  0  0
  3  8  2  0  0  0  0
  4  9  2  0  0  0  0
  4 12  1  0  0  0  0
  5  6  1  0  0  0  0
  6  7  1  0  0  0  0
  6 33  1  0  0  0  0
  6 34  1  0  0  0  0
  7  8  1  0  0  0  0
  7 17  1  0  0  0  0
  7 35  1  6  0  0  0
  9 10  1  0  0  0  0
 10 11  1  0  0  0  0
 10 18  1  0  0  0  0
 10 36  1  1  0  0  0
 11 12  1  0  0  0  0
 11 37  1  0  0  0  0
 11 38  1  0  0  0  0
 13 14  1  0  0  0  0
 13 39  1  0  0  0  0
 13 40  1  0  0  0  0
 14 15  1  0  0  0  0
 14 41  1  0  0  0  0
 14 42  1  0  0  0  0
 15 16  1  0  0  0  0
 15 43  1  0  0  0  0
 15 44  1  0  0  0  0
 16 45  1  0  0  0  0
 16 46  1  0  0  0  0
 17 19  1  0  0  0  0
 17 47  1  0  0  0  0
 17 48  1  0  0  0  0
 18 20  1  0  0  0  0
 18 49  1  0  0  0  0
 18 50  1  0  0  0  0
 19 21  2  0  0  0  0
 19 25  1  0  0  0  0
 20 26  2  0  0  0  0
 20 30  1  0  0  0  0
 21 22  1  0  0  0  0
 21 51  1  0  0  0  0
 22 23  2  0  0  0  0
 22 52  1  0  0  0  0
 23 24  1  0  0  0  0
 23 53  1  0  0  0  0
 24 25  2  0  0  0  0
 24 54  1  0  0  0  0
 25 55  1  0  0  0  0
 26 27  1  0  0  0  0
 26 56  1  0  0  0  0
 27 28  2  0  0  0  0
 27 57  1  0  0  0  0
 28 29  1  0  0  0  0
 28 58  1  0  0  0  0
 29 30  2  0  0  0  0
 29 59  1  0  0  0  0
 30 60  1  0  0  0  0
M  END
$$$$
