Title Card Required
 OpenBabel03192317403D

174181  0  0  0  0  0  0  0  0999 V2000
   -0.5770   -4.2418   -4.2989 O   0  0  0  0  0  0  0  0  0  0  0  0
   -0.1135   -3.3410   -3.3922 C   0  0  0  0  0  0  0  0  0  0  0  0
   -0.5396   -3.3517   -2.0559 C   0  0  0  0  0  0  0  0  0  0  0  0
   -1.4283   -4.2831   -1.6050 O   0  0  0  0  0  0  0  0  0  0  0  0
   -1.5482   -5.4092   -2.4458 C   0  0  0  0  0  0  0  0  0  0  0  0
   -1.7198   -4.9569   -3.8815 C   0  0  0  0  0  0  0  0  0  0  0  0
   -0.0631   -2.3914   -1.1517 C   0  0  0  0  0  0  0  0  0  0  0  0
    0.8463   -1.4166   -1.5857 C   0  0  0  0  0  0  0  0  0  0  0  0
    1.2832   -1.4317   -2.9182 C   0  0  0  0  0  0  0  0  0  0  0  0
    0.8088   -2.3820   -3.8124 C   0  0  0  0  0  0  0  0  0  0  0  0
   -0.1747   -4.8341    3.0761 O   0  0  0  0  0  0  0  0  0  0  0  0
   -0.5990   -3.7941    2.3106 C   0  0  0  0  0  0  0  0  0  0  0  0
   -0.1193   -3.5911    1.0084 C   0  0  0  0  0  0  0  0  0  0  0  0
    0.7699   -4.4576    0.4392 O   0  0  0  0  0  0  0  0  0  0  0  0
    0.8574   -5.7017    1.0986 C   0  0  0  0  0  0  0  0  0  0  0  0
    0.9837   -5.4776    2.5915 C   0  0  0  0  0  0  0  0  0  0  0  0
   -0.5574   -2.4921    0.2540 C   0  0  0  0  0  0  0  0  0  0  0  0
   -1.4782   -1.5900    0.8092 C   0  0  0  0  0  0  0  0  0  0  0  0
   -1.9883   -1.8376    2.0922 C   0  0  0  0  0  0  0  0  0  0  0  0
   -1.5509   -2.9208    2.8395 C   0  0  0  0  0  0  0  0  0  0  0  0
   -2.0032   -0.0970   -0.1502 P   0  0  0  0  0  0  0  0  0  0  0  0
   -3.8202   -0.2144    0.1554 C   0  0  0  0  0  0  0  0  0  0  0  0
   -4.4463   -1.3624   -0.3548 C   0  0  0  0  0  0  0  0  0  0  0  0
   -5.8163   -1.5833   -0.2019 C   0  0  0  0  0  0  0  0  0  0  0  0
   -6.5697   -0.5973    0.4626 C   0  0  0  0  0  0  0  0  0  0  0  0
   -5.9867    0.5716    0.9645 C   0  0  0  0  0  0  0  0  0  0  0  0
   -4.5985    0.7424    0.8052 C   0  0  0  0  0  0  0  0  0  0  0  0
   -6.9956    1.9226    1.8164 Si  0  0  0  0  0  0  0  0  0  0  0  0
   -8.6785    1.2380    2.3097 C   0  0  0  0  0  0  0  0  0  0  0  0
   -6.0635    2.5177    3.3405 C   0  0  0  0  0  0  0  0  0  0  0  0
   -7.2170    3.3635    0.6235 C   0  0  0  0  0  0  0  0  0  0  0  0
   -6.6099   -3.1760   -0.8301 Si  0  0  0  0  0  0  0  0  0  0  0  0
   -7.1881   -4.1967    0.6430 C   0  0  0  0  0  0  0  0  0  0  0  0
   -8.0866   -2.7609   -1.9228 C   0  0  0  0  0  0  0  0  0  0  0  0
   -5.3289   -4.1417   -1.8213 C   0  0  0  0  0  0  0  0  0  0  0  0
   -1.4809    1.2907    0.9485 C   0  0  0  0  0  0  0  0  0  0  0  0
   -0.7166    1.1219    2.1090 C   0  0  0  0  0  0  0  0  0  0  0  0
   -0.2377    2.2143    2.8417 C   0  0  0  0  0  0  0  0  0  0  0  0
   -0.5495    3.5034    2.3841 C   0  0  0  0  0  0  0  0  0  0  0  0
   -1.2940    3.7194    1.2166 C   0  0  0  0  0  0  0  0  0  0  0  0
   -1.7402    2.5937    0.5060 C   0  0  0  0  0  0  0  0  0  0  0  0
   -1.5977    5.4539    0.5390 Si  0  0  0  0  0  0  0  0  0  0  0  0
   -1.2862    6.7246    1.8935 C   0  0  0  0  0  0  0  0  0  0  0  0
   -0.4091    5.7542   -0.8916 C   0  0  0  0  0  0  0  0  0  0  0  0
   -3.3852    5.5841   -0.0436 C   0  0  0  0  0  0  0  0  0  0  0  0
    0.8221    1.9246    4.3773 Si  0  0  0  0  0  0  0  0  0  0  0  0
    1.7186    0.2777    4.1913 C   0  0  0  0  0  0  0  0  0  0  0  0
    2.0491    3.3450    4.5480 C   0  0  0  0  0  0  0  0  0  0  0  0
   -0.2819    1.8683    5.9035 C   0  0  0  0  0  0  0  0  0  0  0  0
    1.4334   -0.1728   -0.3546 P   0  0  0  0  0  0  0  0  0  0  0  0
    3.0791   -0.8545    0.0997 C   0  0  0  0  0  0  0  0  0  0  0  0
    3.4754   -2.1458   -0.2624 C   0  0  0  0  0  0  0  0  0  0  0  0
    4.6677   -2.7092    0.2136 C   0  0  0  0  0  0  0  0  0  0  0  0
    5.4757   -1.9314    1.0546 C   0  0  0  0  0  0  0  0  0  0  0  0
    5.1113   -0.6336    1.4500 C   0  0  0  0  0  0  0  0  0  0  0  0
    3.8965   -0.1233    0.9744 C   0  0  0  0  0  0  0  0  0  0  0  0
    6.2114    0.3755    2.6087 Si  0  0  0  0  0  0  0  0  0  0  0  0
    7.7841    0.8685    1.6984 C   0  0  0  0  0  0  0  0  0  0  0  0
    5.2673    1.9053    3.1660 C   0  0  0  0  0  0  0  0  0  0  0  0
    6.6516   -0.6780    4.1070 C   0  0  0  0  0  0  0  0  0  0  0  0
    5.1026   -4.4890   -0.2406 Si  0  0  0  0  0  0  0  0  0  0  0  0
    6.8333   -4.5574   -0.9782 C   0  0  0  0  0  0  0  0  0  0  0  0
    5.0585   -5.5408    1.3257 C   0  0  0  0  0  0  0  0  0  0  0  0
    3.8315   -5.1216   -1.4767 C   0  0  0  0  0  0  0  0  0  0  0  0
    1.7965    1.2474   -1.4688 C   0  0  0  0  0  0  0  0  0  0  0  0
    0.7224    1.7299   -2.2301 C   0  0  0  0  0  0  0  0  0  0  0  0
    0.8602    2.8321   -3.0828 C   0  0  0  0  0  0  0  0  0  0  0  0
    2.1014    3.4866   -3.1137 C   0  0  0  0  0  0  0  0  0  0  0  0
    3.1924    3.0482   -2.3488 C   0  0  0  0  0  0  0  0  0  0  0  0
    3.0234    1.9123   -1.5427 C   0  0  0  0  0  0  0  0  0  0  0  0
    4.8457    3.9575   -2.3990 Si  0  0  0  0  0  0  0  0  0  0  0  0
    4.5742    5.7437   -1.8670 C   0  0  0  0  0  0  0  0  0  0  0  0
    6.0423    3.1052   -1.2192 C   0  0  0  0  0  0  0  0  0  0  0  0
    5.5298    3.9217   -4.1531 C   0  0  0  0  0  0  0  0  0  0  0  0
   -0.5670    3.2967   -4.2309 Si  0  0  0  0  0  0  0  0  0  0  0  0
   -2.2088    3.1443   -3.3187 C   0  0  0  0  0  0  0  0  0  0  0  0
   -0.3314    5.0541   -4.8650 C   0  0  0  0  0  0  0  0  0  0  0  0
   -0.5574    2.0839   -5.6718 C   0  0  0  0  0  0  0  0  0  0  0  0
   -2.4209   -5.9786   -2.1017 H   0  0  0  0  0  0  0  0  0  0  0  0
   -0.6435   -6.0377   -2.3598 H   0  0  0  0  0  0  0  0  0  0  0  0
   -1.8318   -5.8110   -4.5609 H   0  0  0  0  0  0  0  0  0  0  0  0
   -2.6159   -4.3163   -3.9579 H   0  0  0  0  0  0  0  0  0  0  0  0
    1.9970   -0.6803   -3.2608 H   0  0  0  0  0  0  0  0  0  0  0  0
    1.1277   -2.4012   -4.8552 H   0  0  0  0  0  0  0  0  0  0  0  0
    1.7385   -6.2184    0.6952 H   0  0  0  0  0  0  0  0  0  0  0  0
   -0.0451   -6.3023    0.8865 H   0  0  0  0  0  0  0  0  0  0  0  0
    1.0781   -6.4266    3.1340 H   0  0  0  0  0  0  0  0  0  0  0  0
    1.8724   -4.8544    2.7958 H   0  0  0  0  0  0  0  0  0  0  0  0
   -2.7311   -1.1560    2.5131 H   0  0  0  0  0  0  0  0  0  0  0  0
   -1.9236   -3.1169    3.8453 H   0  0  0  0  0  0  0  0  0  0  0  0
   -3.8272   -2.1092   -0.8651 H   0  0  0  0  0  0  0  0  0  0  0  0
   -7.6471   -0.7517    0.5946 H   0  0  0  0  0  0  0  0  0  0  0  0
   -4.1131    1.6361    1.2093 H   0  0  0  0  0  0  0  0  0  0  0  0
   -8.5750    0.3532    2.9555 H   0  0  0  0  0  0  0  0  0  0  0  0
   -9.2510    1.9977    2.8630 H   0  0  0  0  0  0  0  0  0  0  0  0
   -9.2713    0.9523    1.4276 H   0  0  0  0  0  0  0  0  0  0  0  0
   -5.0751    2.9210    3.0714 H   0  0  0  0  0  0  0  0  0  0  0  0
   -6.6233    3.3164    3.8507 H   0  0  0  0  0  0  0  0  0  0  0  0
   -5.9090    1.6967    4.0563 H   0  0  0  0  0  0  0  0  0  0  0  0
   -6.2399    3.7480    0.2944 H   0  0  0  0  0  0  0  0  0  0  0  0
   -7.7734    3.0483   -0.2717 H   0  0  0  0  0  0  0  0  0  0  0  0
   -7.7678    4.1900    1.0982 H   0  0  0  0  0  0  0  0  0  0  0  0
   -7.8982   -3.6237    1.2582 H   0  0  0  0  0  0  0  0  0  0  0  0
   -7.6890   -5.1208    0.3162 H   0  0  0  0  0  0  0  0  0  0  0  0
   -6.3355   -4.4718    1.2815 H   0  0  0  0  0  0  0  0  0  0  0  0
   -7.7760   -2.1585   -2.7892 H   0  0  0  0  0  0  0  0  0  0  0  0
   -8.5686   -3.6778   -2.2949 H   0  0  0  0  0  0  0  0  0  0  0  0
   -8.8421   -2.1863   -1.3660 H   0  0  0  0  0  0  0  0  0  0  0  0
   -5.0048   -3.5627   -2.7000 H   0  0  0  0  0  0  0  0  0  0  0  0
   -4.4387   -4.3650   -1.2129 H   0  0  0  0  0  0  0  0  0  0  0  0
   -5.7550   -5.0927   -2.1759 H   0  0  0  0  0  0  0  0  0  0  0  0
   -0.4551    0.1108    2.4261 H   0  0  0  0  0  0  0  0  0  0  0  0
   -0.1799    4.3693    2.9442 H   0  0  0  0  0  0  0  0  0  0  0  0
   -2.2927    2.7308   -0.4316 H   0  0  0  0  0  0  0  0  0  0  0  0
   -0.2332    6.7220    2.2133 H   0  0  0  0  0  0  0  0  0  0  0  0
   -1.5203    7.7362    1.5285 H   0  0  0  0  0  0  0  0  0  0  0  0
   -1.9138    6.5273    2.7757 H   0  0  0  0  0  0  0  0  0  0  0  0
   -0.4907    4.9556   -1.6440 H   0  0  0  0  0  0  0  0  0  0  0  0
   -0.5997    6.7212   -1.3825 H   0  0  0  0  0  0  0  0  0  0  0  0
    0.6306    5.7470   -0.5299 H   0  0  0  0  0  0  0  0  0  0  0  0
   -3.6364    4.8036   -0.7777 H   0  0  0  0  0  0  0  0  0  0  0  0
   -4.0732    5.4772    0.8091 H   0  0  0  0  0  0  0  0  0  0  0  0
   -3.5744    6.5611   -0.5139 H   0  0  0  0  0  0  0  0  0  0  0  0
    2.2663    0.2181    3.2378 H   0  0  0  0  0  0  0  0  0  0  0  0
    2.4376    0.1302    5.0125 H   0  0  0  0  0  0  0  0  0  0  0  0
    1.0090   -0.5643    4.2153 H   0  0  0  0  0  0  0  0  0  0  0  0
    1.5303    4.2926    4.7593 H   0  0  0  0  0  0  0  0  0  0  0  0
    2.7507    3.1585    5.3756 H   0  0  0  0  0  0  0  0  0  0  0  0
    2.6355    3.4752    3.6262 H   0  0  0  0  0  0  0  0  0  0  0  0
   -0.8243    2.8178    6.0253 H   0  0  0  0  0  0  0  0  0  0  0  0
   -1.0270    1.0641    5.8099 H   0  0  0  0  0  0  0  0  0  0  0  0
    0.3056    1.6881    6.8167 H   0  0  0  0  0  0  0  0  0  0  0  0
    2.8281   -2.7329   -0.9170 H   0  0  0  0  0  0  0  0  0  0  0  0
    6.4159   -2.3551    1.4304 H   0  0  0  0  0  0  0  0  0  0  0  0
    3.5658    0.8708    1.2970 H   0  0  0  0  0  0  0  0  0  0  0  0
    7.5446    1.4832    0.8178 H   0  0  0  0  0  0  0  0  0  0  0  0
    8.4550    1.4471    2.3516 H   0  0  0  0  0  0  0  0  0  0  0  0
    8.3297   -0.0223    1.3523 H   0  0  0  0  0  0  0  0  0  0  0  0
    4.3375    1.6239    3.6839 H   0  0  0  0  0  0  0  0  0  0  0  0
    5.8748    2.5030    3.8623 H   0  0  0  0  0  0  0  0  0  0  0  0
    5.0003    2.5525    2.3163 H   0  0  0  0  0  0  0  0  0  0  0  0
    5.7429   -0.9802    4.6487 H   0  0  0  0  0  0  0  0  0  0  0  0
    7.1909   -1.5907    3.8119 H   0  0  0  0  0  0  0  0  0  0  0  0
    7.2961   -0.1173    4.8011 H   0  0  0  0  0  0  0  0  0  0  0  0
    7.5794   -4.1621   -0.2725 H   0  0  0  0  0  0  0  0  0  0  0  0
    7.1170   -5.5919   -1.2250 H   0  0  0  0  0  0  0  0  0  0  0  0
    6.8877   -3.9574   -1.8985 H   0  0  0  0  0  0  0  0  0  0  0  0
    4.0650   -5.4950    1.7963 H   0  0  0  0  0  0  0  0  0  0  0  0
    5.2919   -6.5943    1.1080 H   0  0  0  0  0  0  0  0  0  0  0  0
    5.7905   -5.1752    2.0617 H   0  0  0  0  0  0  0  0  0  0  0  0
    2.8076   -5.0206   -1.0825 H   0  0  0  0  0  0  0  0  0  0  0  0
    3.8779   -4.5499   -2.4164 H   0  0  0  0  0  0  0  0  0  0  0  0
    4.0136   -6.1808   -1.7143 H   0  0  0  0  0  0  0  0  0  0  0  0
   -0.2388    1.2043   -2.1680 H   0  0  0  0  0  0  0  0  0  0  0  0
    2.2208    4.3653   -3.7588 H   0  0  0  0  0  0  0  0  0  0  0  0
    3.8707    1.5358   -0.9650 H   0  0  0  0  0  0  0  0  0  0  0  0
    4.1768    5.7874   -0.8420 H   0  0  0  0  0  0  0  0  0  0  0  0
    5.5133    6.3168   -1.8976 H   0  0  0  0  0  0  0  0  0  0  0  0
    3.8505    6.2428   -2.5291 H   0  0  0  0  0  0  0  0  0  0  0  0
    6.2098    2.0558   -1.5068 H   0  0  0  0  0  0  0  0  0  0  0  0
    7.0169    3.6164   -1.2188 H   0  0  0  0  0  0  0  0  0  0  0  0
    5.6557    3.1161   -0.1881 H   0  0  0  0  0  0  0  0  0  0  0  0
    5.7016    2.8862   -4.4821 H   0  0  0  0  0  0  0  0  0  0  0  0
    4.8239    4.3863   -4.8581 H   0  0  0  0  0  0  0  0  0  0  0  0
    6.4834    4.4671   -4.2190 H   0  0  0  0  0  0  0  0  0  0  0  0
   -2.2948    3.8956   -2.5197 H   0  0  0  0  0  0  0  0  0  0  0  0
   -3.0448    3.2994   -4.0180 H   0  0  0  0  0  0  0  0  0  0  0  0
   -2.3290    2.1450   -2.8702 H   0  0  0  0  0  0  0  0  0  0  0  0
    0.5752    5.1372   -5.4834 H   0  0  0  0  0  0  0  0  0  0  0  0
   -1.1880    5.3518   -5.4887 H   0  0  0  0  0  0  0  0  0  0  0  0
   -0.2487    5.7702   -4.0338 H   0  0  0  0  0  0  0  0  0  0  0  0
    0.3888    2.1508   -6.2293 H   0  0  0  0  0  0  0  0  0  0  0  0
   -0.6582    1.0528   -5.2997 H   0  0  0  0  0  0  0  0  0  0  0  0
   -1.3849    2.2814   -6.3699 H   0  0  0  0  0  0  0  0  0  0  0  0
  1  2  1  0  0  0  0
  1  6  1  0  0  0  0
  2  3  2  0  0  0  0
  2 10  1  0  0  0  0
  3  4  1  0  0  0  0
  3  7  1  0  0  0  0
  4  5  1  0  0  0  0
  5  6  1  0  0  0  0
  5 79  1  0  0  0  0
  5 80  1  0  0  0  0
  6 81  1  0  0  0  0
  6 82  1  0  0  0  0
  7  8  2  0  0  0  0
  7 17  1  0  0  0  0
  8  9  1  0  0  0  0
  8 50  1  0  0  0  0
  9 10  2  0  0  0  0
  9 83  1  0  0  0  0
 10 84  1  0  0  0  0
 11 12  1  0  0  0  0
 11 16  1  0  0  0  0
 12 13  2  0  0  0  0
 12 20  1  0  0  0  0
 13 14  1  0  0  0  0
 13 17  1  0  0  0  0
 14 15  1  0  0  0  0
 15 16  1  0  0  0  0
 15 85  1  0  0  0  0
 15 86  1  0  0  0  0
 16 87  1  0  0  0  0
 16 88  1  0  0  0  0
 17 18  2  0  0  0  0
 18 19  1  0  0  0  0
 18 21  1  0  0  0  0
 19 20  2  0  0  0  0
 19 89  1  0  0  0  0
 20 90  1  0  0  0  0
 21 22  1  0  0  0  0
 21 36  1  0  0  0  0
 22 23  2  0  0  0  0
 22 27  1  0  0  0  0
 23 24  1  0  0  0  0
 23 91  1  0  0  0  0
 24 25  2  0  0  0  0
 24 32  1  0  0  0  0
 25 26  1  0  0  0  0
 25 92  1  0  0  0  0
 26 27  2  0  0  0  0
 26 28  1  0  0  0  0
 27 93  1  0  0  0  0
 28 29  1  0  0  0  0
 28 30  1  0  0  0  0
 28 31  1  0  0  0  0
 29 94  1  0  0  0  0
 29 95  1  0  0  0  0
 29 96  1  0  0  0  0
 30 97  1  0  0  0  0
 30 98  1  0  0  0  0
 30 99  1  0  0  0  0
 31100  1  0  0  0  0
 31101  1  0  0  0  0
 31102  1  0  0  0  0
 32 33  1  0  0  0  0
 32 34  1  0  0  0  0
 32 35  1  0  0  0  0
 33103  1  0  0  0  0
 33104  1  0  0  0  0
 33105  1  0  0  0  0
 34106  1  0  0  0  0
 34107  1  0  0  0  0
 34108  1  0  0  0  0
 35109  1  0  0  0  0
 35110  1  0  0  0  0
 35111  1  0  0  0  0
 36 37  2  0  0  0  0
 36 41  1  0  0  0  0
 37 38  1  0  0  0  0
 37112  1  0  0  0  0
 38 39  2  0  0  0  0
 38 46  1  0  0  0  0
 39 40  1  0  0  0  0
 39113  1  0  0  0  0
 40 41  2  0  0  0  0
 40 42  1  0  0  0  0
 41114  1  0  0  0  0
 42 43  1  0  0  0  0
 42 44  1  0  0  0  0
 42 45  1  0  0  0  0
 43115  1  0  0  0  0
 43116  1  0  0  0  0
 43117  1  0  0  0  0
 44118  1  0  0  0  0
 44119  1  0  0  0  0
 44120  1  0  0  0  0
 45121  1  0  0  0  0
 45122  1  0  0  0  0
 45123  1  0  0  0  0
 46 47  1  0  0  0  0
 46 48  1  0  0  0  0
 46 49  1  0  0  0  0
 47124  1  0  0  0  0
 47125  1  0  0  0  0
 47126  1  0  0  0  0
 48127  1  0  0  0  0
 48128  1  0  0  0  0
 48129  1  0  0  0  0
 49130  1  0  0  0  0
 49131  1  0  0  0  0
 49132  1  0  0  0  0
 50 51  1  0  0  0  0
 50 65  1  0  0  0  0
 51 52  2  0  0  0  0
 51 56  1  0  0  0  0
 52 53  1  0  0  0  0
 52133  1  0  0  0  0
 53 54  2  0  0  0  0
 53 61  1  0  0  0  0
 54 55  1  0  0  0  0
 54134  1  0  0  0  0
 55 56  2  0  0  0  0
 55 57  1  0  0  0  0
 56135  1  0  0  0  0
 57 58  1  0  0  0  0
 57 59  1  0  0  0  0
 57 60  1  0  0  0  0
 58136  1  0  0  0  0
 58137  1  0  0  0  0
 58138  1  0  0  0  0
 59139  1  0  0  0  0
 59140  1  0  0  0  0
 59141  1  0  0  0  0
 60142  1  0  0  0  0
 60143  1  0  0  0  0
 60144  1  0  0  0  0
 61 62  1  0  0  0  0
 61 63  1  0  0  0  0
 61 64  1  0  0  0  0
 62145  1  0  0  0  0
 62146  1  0  0  0  0
 62147  1  0  0  0  0
 63148  1  0  0  0  0
 63149  1  0  0  0  0
 63150  1  0  0  0  0
 64151  1  0  0  0  0
 64152  1  0  0  0  0
 64153  1  0  0  0  0
 65 66  2  0  0  0  0
 65 70  1  0  0  0  0
 66 67  1  0  0  0  0
 66154  1  0  0  0  0
 67 68  2  0  0  0  0
 67 75  1  0  0  0  0
 68 69  1  0  0  0  0
 68155  1  0  0  0  0
 69 70  2  0  0  0  0
 69 71  1  0  0  0  0
 70156  1  0  0  0  0
 71 72  1  0  0  0  0
 71 73  1  0  0  0  0
 71 74  1  0  0  0  0
 72157  1  0  0  0  0
 72158  1  0  0  0  0
 72159  1  0  0  0  0
 73160  1  0  0  0  0
 73161  1  0  0  0  0
 73162  1  0  0  0  0
 74163  1  0  0  0  0
 74164  1  0  0  0  0
 74165  1  0  0  0  0
 75 76  1  0  0  0  0
 75 77  1  0  0  0  0
 75 78  1  0  0  0  0
 76166  1  0  0  0  0
 76167  1  0  0  0  0
 76168  1  0  0  0  0
 77169  1  0  0  0  0
 77170  1  0  0  0  0
 77171  1  0  0  0  0
 78172  1  0  0  0  0
 78173  1  0  0  0  0
 78174  1  0  0  0  0
M  END
$$$$
