Title Card Required
 OpenBabel03192317573D

 35 39  0  0  1  0  0  0  0  0999 V2000
   -4.0062   -1.4842   -0.5908 N   0  0  0  0  0  0  0  0  0  0  0  0
   -5.2514   -1.2457   -0.9068 C   0  0  0  0  0  0  0  0  0  0  0  0
   -5.8605    0.0378   -0.8538 C   0  0  0  0  0  0  0  0  0  0  0  0
   -5.1021    1.1036   -0.4454 C   0  0  0  0  0  0  0  0  0  0  0  0
   -3.7466    0.8837   -0.0943 C   0  0  0  0  0  0  0  0  0  0  0  0
   -2.8710    1.9122    0.3435 C   0  0  0  0  0  0  0  0  0  0  0  0
   -1.5794    1.5959    0.6613 C   0  0  0  0  0  0  0  0  0  0  0  0
   -1.1726    0.2353    0.5359 C   0  0  0  0  0  0  0  0  0  0  0  0
   -1.9501   -0.7362    0.1362 N   0  0  0  0  0  0  0  0  0  0  0  0
   -3.2348   -0.4448   -0.1835 C   0  0  0  0  0  0  0  0  0  0  0  0
    0.2334   -0.0974    0.8875 C   0  0  0  0  0  0  0  0  0  0  0  0
    1.0797    0.7500    1.3131 N   0  0  0  0  0  0  0  0  0  0  0  0
    2.3371    0.0208    1.4660 C   0  0  1  0  0  0  0  0  0  0  0  0
    1.9622   -1.4719    1.2160 C   0  0  1  0  0  0  0  0  0  0  0  0
    0.6133   -1.3782    0.7423 O   0  0  0  0  0  0  0  0  0  0  0  0
    3.3162    0.3403    0.3567 C   0  0  0  0  0  0  0  0  0  0  0  0
    3.6064   -0.7935   -0.4044 C   0  0  0  0  0  0  0  0  0  0  0  0
    2.9026   -2.0176    0.1332 C   0  0  0  0  0  0  0  0  0  0  0  0
    3.8623    1.5806    0.0369 C   0  0  0  0  0  0  0  0  0  0  0  0
    4.7254    1.6732   -1.0540 C   0  0  0  0  0  0  0  0  0  0  0  0
    5.0277    0.5387   -1.8136 C   0  0  0  0  0  0  0  0  0  0  0  0
    4.4699   -0.6991   -1.4951 C   0  0  0  0  0  0  0  0  0  0  0  0
   -5.8486   -2.1056   -1.2303 H   0  0  0  0  0  0  0  0  0  0  0  0
   -6.9075    0.1547   -1.1336 H   0  0  0  0  0  0  0  0  0  0  0  0
   -5.5169    2.1122   -0.3839 H   0  0  0  0  0  0  0  0  0  0  0  0
   -3.2410    2.9370    0.4201 H   0  0  0  0  0  0  0  0  0  0  0  0
   -0.8522    2.3304    1.0048 H   0  0  0  0  0  0  0  0  0  0  0  0
    2.7671    0.2131    2.4605 H   0  0  0  0  0  0  0  0  0  0  0  0
    1.9512   -2.0925    2.1224 H   0  0  0  0  0  0  0  0  0  0  0  0
    3.6223   -2.7306    0.5640 H   0  0  0  0  0  0  0  0  0  0  0  0
    2.3259   -2.5540   -0.6336 H   0  0  0  0  0  0  0  0  0  0  0  0
    3.6070    2.4624    0.6274 H   0  0  0  0  0  0  0  0  0  0  0  0
    5.1645    2.6357   -1.3209 H   0  0  0  0  0  0  0  0  0  0  0  0
    5.7036    0.6235   -2.6661 H   0  0  0  0  0  0  0  0  0  0  0  0
    4.7046   -1.5806   -2.0954 H   0  0  0  0  0  0  0  0  0  0  0  0
  1  2  1  0  0  0  0
  1 10  2  0  0  0  0
  2  3  2  0  0  0  0
  2 23  1  0  0  0  0
  3  4  1  0  0  0  0
  3 24  1  0  0  0  0
  4  5  2  0  0  0  0
  4 25  1  0  0  0  0
  5  6  1  0  0  0  0
  5 10  1  0  0  0  0
  6  7  2  0  0  0  0
  6 26  1  0  0  0  0
  7  8  1  0  0  0  0
  7 27  1  0  0  0  0
  8  9  2  0  0  0  0
  8 11  1  0  0  0  0
  9 10  1  0  0  0  0
 11 12  2  0  0  0  0
 11 15  1  0  0  0  0
 12 13  1  0  0  0  0
 13 14  1  0  0  0  0
 13 16  1  0  0  0  0
 13 28  1  1  0  0  0
 14 15  1  0  0  0  0
 14 18  1  0  0  0  0
 14 29  1  1  0  0  0
 16 17  2  0  0  0  0
 16 19  1  0  0  0  0
 17 18  1  0  0  0  0
 17 22  1  0  0  0  0
 18 30  1  0  0  0  0
 18 31  1  0  0  0  0
 19 20  2  0  0  0  0
 19 32  1  0  0  0  0
 20 21  1  0  0  0  0
 20 33  1  0  0  0  0
 21 22  2  0  0  0  0
 21 34  1  0  0  0  0
 22 35  1  0  0  0  0
M  END
$$$$
