Title Card Required
 OpenBabel03192317573D

 33 34  0  0  1  0  0  0  0  0999 V2000
    0.6273   -2.1322   -0.0660 O   0  0  0  0  0  0  0  0  0  0  0  0
    0.2002   -0.9029    0.3278 C   0  0  0  0  0  0  0  0  0  0  0  0
    1.0567   -0.1205    0.8389 N   0  0  0  0  0  0  0  0  0  0  0  0
    2.3588   -0.7775    0.7213 C   0  0  1  0  0  0  0  0  0  0  0  0
    1.9915   -2.2288    0.3453 C   0  0  0  0  0  0  0  0  0  0  0  0
   -1.2423   -0.6519    0.1138 C   0  0  0  0  0  0  0  0  0  0  0  0
   -1.7723    0.6203   -0.1887 C   0  0  0  0  0  0  0  0  0  0  0  0
   -3.1516    0.7422   -0.3917 C   0  0  0  0  0  0  0  0  0  0  0  0
   -3.9994   -0.3585   -0.2913 C   0  0  0  0  0  0  0  0  0  0  0  0
   -3.4725   -1.6135    0.0032 C   0  0  0  0  0  0  0  0  0  0  0  0
   -2.1022   -1.7551    0.1944 C   0  0  0  0  0  0  0  0  0  0  0  0
   -0.7876    2.0890   -0.4568 S   0  0  0  0  0  0  0  0  0  0  0  0
   -0.4575    2.6037    1.2536 C   0  0  0  0  0  0  0  0  0  0  0  0
    3.2231   -0.0523   -0.3267 C   0  0  0  0  0  0  0  0  0  0  0  0
    2.5496   -0.0236   -1.6982 C   0  0  0  0  0  0  0  0  0  0  0  0
    3.5506    1.3632    0.1412 C   0  0  0  0  0  0  0  0  0  0  0  0
    2.8806   -0.7356    1.6897 H   0  0  0  0  0  0  0  0  0  0  0  0
    2.5862   -2.6333   -0.4850 H   0  0  0  0  0  0  0  0  0  0  0  0
    2.0525   -2.9167    1.2022 H   0  0  0  0  0  0  0  0  0  0  0  0
   -3.5502    1.7271   -0.6385 H   0  0  0  0  0  0  0  0  0  0  0  0
   -5.0714   -0.2332   -0.4514 H   0  0  0  0  0  0  0  0  0  0  0  0
   -4.1257   -2.4839    0.0760 H   0  0  0  0  0  0  0  0  0  0  0  0
   -1.6704   -2.7336    0.4054 H   0  0  0  0  0  0  0  0  0  0  0  0
   -1.4000    2.7723    1.7895 H   0  0  0  0  0  0  0  0  0  0  0  0
    0.1614    1.8457    1.7472 H   0  0  0  0  0  0  0  0  0  0  0  0
    0.0927    3.5513    1.1821 H   0  0  0  0  0  0  0  0  0  0  0  0
    4.1622   -0.6304   -0.3997 H   0  0  0  0  0  0  0  0  0  0  0  0
    1.6521    0.6134   -1.6639 H   0  0  0  0  0  0  0  0  0  0  0  0
    3.2331    0.3909   -2.4530 H   0  0  0  0  0  0  0  0  0  0  0  0
    2.2436   -1.0255   -2.0360 H   0  0  0  0  0  0  0  0  0  0  0  0
    4.0584    1.3589    1.1172 H   0  0  0  0  0  0  0  0  0  0  0  0
    4.2027    1.8740   -0.5819 H   0  0  0  0  0  0  0  0  0  0  0  0
    2.6206    1.9432    0.2391 H   0  0  0  0  0  0  0  0  0  0  0  0
  1  2  1  0  0  0  0
  1  5  1  0  0  0  0
  2  3  2  0  0  0  0
  2  6  1  0  0  0  0
  3  4  1  0  0  0  0
  4  5  1  0  0  0  0
  4 14  1  0  0  0  0
  4 17  1  1  0  0  0
  5 18  1  0  0  0  0
  5 19  1  0  0  0  0
  6  7  2  0  0  0  0
  6 11  1  0  0  0  0
  7  8  1  0  0  0  0
  7 12  1  0  0  0  0
  8  9  2  0  0  0  0
  8 20  1  0  0  0  0
  9 10  1  0  0  0  0
  9 21  1  0  0  0  0
 10 11  2  0  0  0  0
 10 22  1  0  0  0  0
 11 23  1  0  0  0  0
 12 13  1  0  0  0  0
 13 24  1  0  0  0  0
 13 25  1  0  0  0  0
 13 26  1  0  0  0  0
 14 15  1  0  0  0  0
 14 16  1  0  0  0  0
 14 27  1  0  0  0  0
 15 28  1  0  0  0  0
 15 29  1  0  0  0  0
 15 30  1  0  0  0  0
 16 31  1  0  0  0  0
 16 32  1  0  0  0  0
 16 33  1  0  0  0  0
M  END
$$$$
