Title Card Required
 OpenBabel03192317563D

 29 31  0  0  1  0  0  0  0  0999 V2000
    1.0138    1.9566   -0.3673 O   0  0  0  0  0  0  0  0  0  0  0  0
    0.6272    0.8219    0.2378 C   0  0  0  0  0  0  0  0  0  0  0  0
    1.4982    0.1277    0.8489 N   0  0  0  0  0  0  0  0  0  0  0  0
    2.7633    0.8479    0.7370 C   0  0  2  0  0  0  0  0  0  0  0  0
    2.4372    1.9980   -0.2574 C   0  0  0  0  0  0  0  0  0  0  0  0
    3.9248   -0.0119    0.2902 C   0  0  0  0  0  0  0  0  0  0  0  0
    3.7331   -1.3093   -0.1872 C   0  0  0  0  0  0  0  0  0  0  0  0
    4.8203   -2.0620   -0.6325 C   0  0  0  0  0  0  0  0  0  0  0  0
    6.1059   -1.5256   -0.6062 C   0  0  0  0  0  0  0  0  0  0  0  0
    6.3038   -0.2302   -0.1271 C   0  0  0  0  0  0  0  0  0  0  0  0
    5.2192    0.5191    0.3214 C   0  0  0  0  0  0  0  0  0  0  0  0
   -0.8135    0.4747    0.1592 C   0  0  0  0  0  0  0  0  0  0  0  0
   -1.2714   -0.6638    0.8315 C   0  0  0  0  0  0  0  0  0  0  0  0
   -2.6216   -0.9803    0.7526 C   0  0  0  0  0  0  0  0  0  0  0  0
   -3.4468   -0.1403    0.0084 C   0  0  0  0  0  0  0  0  0  0  0  0
   -2.8966    0.9757   -0.6288 C   0  0  0  0  0  0  0  0  0  0  0  0
   -1.6069    1.2717   -0.5522 N   0  0  0  0  0  0  0  0  0  0  0  0
   -5.2907   -0.4891   -0.1430 Br  0  0  0  0  0  0  0  0  0  0  0  0
    3.0093    1.2564    1.7329 H   0  0  0  0  0  0  0  0  0  0  0  0
    2.7375    2.9921    0.0958 H   0  0  0  0  0  0  0  0  0  0  0  0
    2.8751    1.8153   -1.2506 H   0  0  0  0  0  0  0  0  0  0  0  0
    2.7244   -1.7236   -0.1974 H   0  0  0  0  0  0  0  0  0  0  0  0
    4.6605   -3.0765   -1.0016 H   0  0  0  0  0  0  0  0  0  0  0  0
    6.9547   -2.1166   -0.9535 H   0  0  0  0  0  0  0  0  0  0  0  0
    7.3082    0.1950   -0.0967 H   0  0  0  0  0  0  0  0  0  0  0  0
    5.3797    1.5299    0.7067 H   0  0  0  0  0  0  0  0  0  0  0  0
   -0.5643   -1.2690    1.3985 H   0  0  0  0  0  0  0  0  0  0  0  0
   -3.0317   -1.8560    1.2565 H   0  0  0  0  0  0  0  0  0  0  0  0
   -3.5349    1.6405   -1.2175 H   0  0  0  0  0  0  0  0  0  0  0  0
  1  2  1  0  0  0  0
  1  5  1  0  0  0  0
  2  3  2  0  0  0  0
  2 12  1  0  0  0  0
  3  4  1  0  0  0  0
  4  5  1  0  0  0  0
  4  6  1  0  0  0  0
  4 19  1  1  0  0  0
  5 20  1  0  0  0  0
  5 21  1  0  0  0  0
  6  7  2  0  0  0  0
  6 11  1  0  0  0  0
  7  8  1  0  0  0  0
  7 22  1  0  0  0  0
  8  9  2  0  0  0  0
  8 23  1  0  0  0  0
  9 10  1  0  0  0  0
  9 24  1  0  0  0  0
 10 11  2  0  0  0  0
 10 25  1  0  0  0  0
 11 26  1  0  0  0  0
 12 13  2  0  0  0  0
 12 17  1  0  0  0  0
 13 14  1  0  0  0  0
 13 27  1  0  0  0  0
 14 15  2  0  0  0  0
 14 28  1  0  0  0  0
 15 16  1  0  0  0  0
 15 18  1  0  0  0  0
 16 17  2  0  0  0  0
 16 29  1  0  0  0  0
M  END
$$$$
