Title Card Required
 OpenBabel03192317513D

 52 54  0  0  1  0  0  0  0  0999 V2000
   -0.7030    1.2788    0.6642 C   0  0  2  0  0  0  0  0  0  0  0  0
    0.1170    1.4422   -0.6147 C   0  0  2  0  0  0  0  0  0  0  0  0
   -1.3495   -0.0698    0.7206 C   0  0  0  0  0  0  0  0  0  0  0  0
    1.2407    0.4555   -0.6674 C   0  0  0  0  0  0  0  0  0  0  0  0
   -1.9027   -0.3860    1.9163 O   0  0  0  0  0  0  0  0  0  0  0  0
   -2.4098   -1.7143    1.7851 C   0  0  0  0  0  0  0  0  0  0  0  0
   -2.2696   -2.0159    0.2734 C   0  0  2  0  0  0  0  0  0  0  0  0
   -1.4708   -0.8981   -0.2306 N   0  0  0  0  0  0  0  0  0  0  0  0
    1.7671   -0.1501    0.3125 N   0  0  0  0  0  0  0  0  0  0  0  0
    2.8402   -0.9864   -0.2245 C   0  0  1  0  0  0  0  0  0  0  0  0
    2.9138   -0.5722   -1.7146 C   0  0  0  0  0  0  0  0  0  0  0  0
    1.7638    0.2525   -1.8989 O   0  0  0  0  0  0  0  0  0  0  0  0
   -3.6099   -2.1172   -0.4752 C   0  0  0  0  0  0  0  0  0  0  0  0
    4.1578   -0.8110    0.5338 C   0  0  0  0  0  0  0  0  0  0  0  0
    3.9730   -1.1068    2.0185 C   0  0  0  0  0  0  0  0  0  0  0  0
    5.2484   -1.6902   -0.0744 C   0  0  0  0  0  0  0  0  0  0  0  0
   -4.3926   -0.8072   -0.4044 C   0  0  0  0  0  0  0  0  0  0  0  0
   -3.3789   -2.5396   -1.9233 C   0  0  0  0  0  0  0  0  0  0  0  0
    0.6862    2.8652   -0.7421 C   0  0  0  0  0  0  0  0  0  0  0  0
   -0.4075    3.9233   -0.6305 C   0  0  0  0  0  0  0  0  0  0  0  0
   -1.1813    3.7679    0.6773 C   0  0  0  0  0  0  0  0  0  0  0  0
   -1.7802    2.3687    0.7913 C   0  0  0  0  0  0  0  0  0  0  0  0
   -0.0215    1.3425    1.5287 H   0  0  0  0  0  0  0  0  0  0  0  0
   -0.5311    1.2323   -1.4811 H   0  0  0  0  0  0  0  0  0  0  0  0
   -3.4501   -1.7383    2.1402 H   0  0  0  0  0  0  0  0  0  0  0  0
   -1.8021   -2.3835    2.4109 H   0  0  0  0  0  0  0  0  0  0  0  0
   -1.7181   -2.9555    0.1114 H   0  0  0  0  0  0  0  0  0  0  0  0
    2.5317   -2.0440   -0.1240 H   0  0  0  0  0  0  0  0  0  0  0  0
    3.8136    0.0280   -1.9309 H   0  0  0  0  0  0  0  0  0  0  0  0
    2.8670   -1.4120   -2.4193 H   0  0  0  0  0  0  0  0  0  0  0  0
   -4.1915   -2.9057    0.0357 H   0  0  0  0  0  0  0  0  0  0  0  0
    4.4477    0.2495    0.4200 H   0  0  0  0  0  0  0  0  0  0  0  0
    3.6874   -2.1610    2.1654 H   0  0  0  0  0  0  0  0  0  0  0  0
    4.9062   -0.9300    2.5729 H   0  0  0  0  0  0  0  0  0  0  0  0
    3.1793   -0.4789    2.4419 H   0  0  0  0  0  0  0  0  0  0  0  0
    5.4200   -1.4662   -1.1382 H   0  0  0  0  0  0  0  0  0  0  0  0
    6.2034   -1.5519    0.4525 H   0  0  0  0  0  0  0  0  0  0  0  0
    4.9722   -2.7540    0.0065 H   0  0  0  0  0  0  0  0  0  0  0  0
   -3.8673   -0.0256   -0.9732 H   0  0  0  0  0  0  0  0  0  0  0  0
   -5.3967   -0.9280   -0.8356 H   0  0  0  0  0  0  0  0  0  0  0  0
   -4.5100   -0.4471    0.6297 H   0  0  0  0  0  0  0  0  0  0  0  0
   -2.8812   -3.5191   -1.9786 H   0  0  0  0  0  0  0  0  0  0  0  0
   -4.3283   -2.6069   -2.4740 H   0  0  0  0  0  0  0  0  0  0  0  0
   -2.7336   -1.8042   -2.4252 H   0  0  0  0  0  0  0  0  0  0  0  0
    1.4264    3.0144    0.0630 H   0  0  0  0  0  0  0  0  0  0  0  0
    1.2256    2.9506   -1.6965 H   0  0  0  0  0  0  0  0  0  0  0  0
    0.0326    4.9290   -0.7037 H   0  0  0  0  0  0  0  0  0  0  0  0
   -1.1046    3.8179   -1.4795 H   0  0  0  0  0  0  0  0  0  0  0  0
   -0.4975    3.9408    1.5260 H   0  0  0  0  0  0  0  0  0  0  0  0
   -1.9767    4.5245    0.7505 H   0  0  0  0  0  0  0  0  0  0  0  0
   -2.5232    2.2213   -0.0122 H   0  0  0  0  0  0  0  0  0  0  0  0
   -2.3099    2.2392    1.7458 H   0  0  0  0  0  0  0  0  0  0  0  0
  1  2  1  0  0  0  0
  1  3  1  0  0  0  0
  1 22  1  0  0  0  0
  1 23  1  1  0  0  0
  2  4  1  0  0  0  0
  2 19  1  0  0  0  0
  2 24  1  6  0  0  0
  3  5  1  0  0  0  0
  3  8  2  0  0  0  0
  4  9  2  0  0  0  0
  4 12  1  0  0  0  0
  5  6  1  0  0  0  0
  6  7  1  0  0  0  0
  6 25  1  0  0  0  0
  6 26  1  0  0  0  0
  7  8  1  0  0  0  0
  7 13  1  0  0  0  0
  7 27  1  6  0  0  0
  9 10  1  0  0  0  0
 10 11  1  0  0  0  0
 10 14  1  0  0  0  0
 10 28  1  1  0  0  0
 11 12  1  0  0  0  0
 11 29  1  0  0  0  0
 11 30  1  0  0  0  0
 13 17  1  0  0  0  0
 13 18  1  0  0  0  0
 13 31  1  0  0  0  0
 14 15  1  0  0  0  0
 14 16  1  0  0  0  0
 14 32  1  0  0  0  0
 15 33  1  0  0  0  0
 15 34  1  0  0  0  0
 15 35  1  0  0  0  0
 16 36  1  0  0  0  0
 16 37  1  0  0  0  0
 16 38  1  0  0  0  0
 17 39  1  0  0  0  0
 17 40  1  0  0  0  0
 17 41  1  0  0  0  0
 18 42  1  0  0  0  0
 18 43  1  0  0  0  0
 18 44  1  0  0  0  0
 19 20  1  0  0  0  0
 19 45  1  0  0  0  0
 19 46  1  0  0  0  0
 20 21  1  0  0  0  0
 20 47  1  0  0  0  0
 20 48  1  0  0  0  0
 21 22  1  0  0  0  0
 21 49  1  0  0  0  0
 21 50  1  0  0  0  0
 22 51  1  0  0  0  0
 22 52  1  0  0  0  0
M  END
$$$$
