Title Card Required
 OpenBabel03192317473D

 42 45  0  0  1  0  0  0  0  0999 V2000
   -0.0530   -1.7750   -0.2537 O   0  0  0  0  0  0  0  0  0  0  0  0
   -0.3806   -0.4696   -0.2757 C   0  0  0  0  0  0  0  0  0  0  0  0
   -1.6090   -0.1522   -0.3279 N   0  0  0  0  0  0  0  0  0  0  0  0
   -2.3681   -1.4008   -0.3672 C   0  0  1  0  0  0  0  0  0  0  0  0
   -1.2854   -2.4906   -0.1726 C   0  0  0  0  0  0  0  0  0  0  0  0
    0.7409    0.5045   -0.2529 C   0  0  0  0  0  0  0  0  0  0  0  0
    0.4549    1.8687   -0.3661 C   0  0  0  0  0  0  0  0  0  0  0  0
    1.5294    2.7501   -0.3529 C   0  0  0  0  0  0  0  0  0  0  0  0
    2.8205    2.2472   -0.2241 C   0  0  0  0  0  0  0  0  0  0  0  0
    3.0066    0.8611   -0.1030 C   0  0  0  0  0  0  0  0  0  0  0  0
    1.9694    0.0211   -0.1258 N   0  0  0  0  0  0  0  0  0  0  0  0
    4.3573    0.2459    0.0380 C   0  0  0  0  0  0  0  0  0  0  0  0
    5.4941    1.0034    0.3481 C   0  0  0  0  0  0  0  0  0  0  0  0
    6.7417    0.3946    0.4646 C   0  0  0  0  0  0  0  0  0  0  0  0
    6.8719   -0.9799    0.2731 C   0  0  0  0  0  0  0  0  0  0  0  0
    5.7437   -1.7432   -0.0278 C   0  0  0  0  0  0  0  0  0  0  0  0
    4.4961   -1.1373   -0.1406 C   0  0  0  0  0  0  0  0  0  0  0  0
   -3.4681   -1.4486    0.6979 C   0  0  0  0  0  0  0  0  0  0  0  0
   -4.5935   -0.4769    0.4454 C   0  0  0  0  0  0  0  0  0  0  0  0
   -5.8285   -0.9253   -0.0334 C   0  0  0  0  0  0  0  0  0  0  0  0
   -6.8660   -0.0292   -0.2907 C   0  0  0  0  0  0  0  0  0  0  0  0
   -6.6793    1.3337   -0.0712 C   0  0  0  0  0  0  0  0  0  0  0  0
   -5.4503    1.7928    0.4043 C   0  0  0  0  0  0  0  0  0  0  0  0
   -4.4158    0.8960    0.6591 C   0  0  0  0  0  0  0  0  0  0  0  0
   -2.8475   -1.4816   -1.3578 H   0  0  0  0  0  0  0  0  0  0  0  0
   -1.3522   -2.9652    0.8200 H   0  0  0  0  0  0  0  0  0  0  0  0
   -1.2946   -3.2710   -0.9438 H   0  0  0  0  0  0  0  0  0  0  0  0
   -0.5799    2.1931   -0.4693 H   0  0  0  0  0  0  0  0  0  0  0  0
    1.3658    3.8243   -0.4512 H   0  0  0  0  0  0  0  0  0  0  0  0
    3.6733    2.9242   -0.2359 H   0  0  0  0  0  0  0  0  0  0  0  0
    5.4141    2.0771    0.5214 H   0  0  0  0  0  0  0  0  0  0  0  0
    7.6160    0.9982    0.7132 H   0  0  0  0  0  0  0  0  0  0  0  0
    7.8497   -1.4553    0.3645 H   0  0  0  0  0  0  0  0  0  0  0  0
    5.8365   -2.8204   -0.1751 H   0  0  0  0  0  0  0  0  0  0  0  0
    3.6026   -1.7192   -0.3677 H   0  0  0  0  0  0  0  0  0  0  0  0
   -3.8704   -2.4735    0.7319 H   0  0  0  0  0  0  0  0  0  0  0  0
   -2.9992   -1.2506    1.6755 H   0  0  0  0  0  0  0  0  0  0  0  0
   -5.9828   -1.9942   -0.2016 H   0  0  0  0  0  0  0  0  0  0  0  0
   -7.8239   -0.3993   -0.6602 H   0  0  0  0  0  0  0  0  0  0  0  0
   -7.4893    2.0380   -0.2676 H   0  0  0  0  0  0  0  0  0  0  0  0
   -5.2972    2.8592    0.5786 H   0  0  0  0  0  0  0  0  0  0  0  0
   -3.4493    1.2545    1.0165 H   0  0  0  0  0  0  0  0  0  0  0  0
  1  2  1  0  0  0  0
  1  5  1  0  0  0  0
  2  3  2  0  0  0  0
  2  6  1  0  0  0  0
  3  4  1  0  0  0  0
  4  5  1  0  0  0  0
  4 18  1  0  0  0  0
  4 25  1  6  0  0  0
  5 26  1  0  0  0  0
  5 27  1  0  0  0  0
  6  7  2  0  0  0  0
  6 11  1  0  0  0  0
  7  8  1  0  0  0  0
  7 28  1  0  0  0  0
  8  9  2  0  0  0  0
  8 29  1  0  0  0  0
  9 10  1  0  0  0  0
  9 30  1  0  0  0  0
 10 11  2  0  0  0  0
 10 12  1  0  0  0  0
 12 13  2  0  0  0  0
 12 17  1  0  0  0  0
 13 14  1  0  0  0  0
 13 31  1  0  0  0  0
 14 15  2  0  0  0  0
 14 32  1  0  0  0  0
 15 16  1  0  0  0  0
 15 33  1  0  0  0  0
 16 17  2  0  0  0  0
 16 34  1  0  0  0  0
 17 35  1  0  0  0  0
 18 19  1  0  0  0  0
 18 36  1  0  0  0  0
 18 37  1  0  0  0  0
 19 20  2  0  0  0  0
 19 24  1  0  0  0  0
 20 21  1  0  0  0  0
 20 38  1  0  0  0  0
 21 22  2  0  0  0  0
 21 39  1  0  0  0  0
 22 23  1  0  0  0  0
 22 40  1  0  0  0  0
 23 24  2  0  0  0  0
 23 41  1  0  0  0  0
 24 42  1  0  0  0  0
M  END
$$$$
