Title Card Required
 OpenBabel03192317503D

 31 32  0  0  1  0  0  0  0  0999 V2000
   -0.4873   -1.6903   -0.1320 O   0  0  0  0  0  0  0  0  0  0  0  0
   -0.0537   -0.4448   -0.3875 C   0  0  0  0  0  0  0  0  0  0  0  0
   -0.8955    0.4270   -0.7676 N   0  0  0  0  0  0  0  0  0  0  0  0
   -2.2077   -0.2197   -0.7662 C   0  0  1  0  0  0  0  0  0  0  0  0
   -1.8753   -1.7051   -0.4690 C   0  0  0  0  0  0  0  0  0  0  0  0
    1.3945   -0.1845   -0.1953 C   0  0  0  0  0  0  0  0  0  0  0  0
    1.8888    1.0974   -0.4671 C   0  0  0  0  0  0  0  0  0  0  0  0
    3.2450    1.3378   -0.2892 C   0  0  0  0  0  0  0  0  0  0  0  0
    4.0278    0.2798    0.1530 C   0  0  0  0  0  0  0  0  0  0  0  0
    3.4541   -0.9655    0.4022 C   0  0  0  0  0  0  0  0  0  0  0  0
    2.1591   -1.1885    0.2280 N   0  0  0  0  0  0  0  0  0  0  0  0
    5.3315    0.4458    0.3412 F   0  0  0  0  0  0  0  0  0  0  0  0
   -3.1710    0.4578    0.2389 C   0  0  0  0  0  0  0  0  0  0  0  0
   -3.3704    1.9137   -0.1913 C   0  0  0  0  0  0  0  0  0  0  0  0
   -4.5195   -0.2674    0.2042 C   0  0  0  0  0  0  0  0  0  0  0  0
   -2.5823    0.4184    1.6513 C   0  0  0  0  0  0  0  0  0  0  0  0
   -2.6593   -0.1137   -1.7667 H   0  0  0  0  0  0  0  0  0  0  0  0
   -2.4331   -2.1298    0.3763 H   0  0  0  0  0  0  0  0  0  0  0  0
   -2.0140   -2.3548   -1.3449 H   0  0  0  0  0  0  0  0  0  0  0  0
    1.1999    1.8684   -0.8113 H   0  0  0  0  0  0  0  0  0  0  0  0
    3.7004    2.3099   -0.4813 H   0  0  0  0  0  0  0  0  0  0  0  0
    4.0847   -1.7887    0.7501 H   0  0  0  0  0  0  0  0  0  0  0  0
   -3.8250    1.9673   -1.1928 H   0  0  0  0  0  0  0  0  0  0  0  0
   -4.0369    2.4347    0.5126 H   0  0  0  0  0  0  0  0  0  0  0  0
   -2.4076    2.4405   -0.2248 H   0  0  0  0  0  0  0  0  0  0  0  0
   -4.4422   -1.3056    0.5609 H   0  0  0  0  0  0  0  0  0  0  0  0
   -5.2445    0.2489    0.8509 H   0  0  0  0  0  0  0  0  0  0  0  0
   -4.9315   -0.2849   -0.8170 H   0  0  0  0  0  0  0  0  0  0  0  0
   -2.3711   -0.6106    1.9822 H   0  0  0  0  0  0  0  0  0  0  0  0
   -1.6442    0.9903    1.6944 H   0  0  0  0  0  0  0  0  0  0  0  0
   -3.2875    0.8612    2.3705 H   0  0  0  0  0  0  0  0  0  0  0  0
  1  2  1  0  0  0  0
  1  5  1  0  0  0  0
  2  3  2  0  0  0  0
  2  6  1  0  0  0  0
  3  4  1  0  0  0  0
  4  5  1  0  0  0  0
  4 13  1  0  0  0  0
  4 17  1  6  0  0  0
  5 18  1  0  0  0  0
  5 19  1  0  0  0  0
  6  7  2  0  0  0  0
  6 11  1  0  0  0  0
  7  8  1  0  0  0  0
  7 20  1  0  0  0  0
  8  9  2  0  0  0  0
  8 21  1  0  0  0  0
  9 10  1  0  0  0  0
  9 12  1  0  0  0  0
 10 11  2  0  0  0  0
 10 22  1  0  0  0  0
 13 14  1  0  0  0  0
 13 15  1  0  0  0  0
 13 16  1  0  0  0  0
 14 23  1  0  0  0  0
 14 24  1  0  0  0  0
 14 25  1  0  0  0  0
 15 26  1  0  0  0  0
 15 27  1  0  0  0  0
 15 28  1  0  0  0  0
 16 29  1  0  0  0  0
 16 30  1  0  0  0  0
 16 31  1  0  0  0  0
M  END
$$$$
