Title Card Required
 OpenBabel03192317433D

 35 37  0  0  1  0  0  0  0  0999 V2000
   -1.1961    2.0406   -0.1480 O   0  0  0  0  0  0  0  0  0  0  0  0
   -0.9961    0.7111   -0.2030 C   0  0  0  0  0  0  0  0  0  0  0  0
    0.1935    0.2801   -0.3139 N   0  0  0  0  0  0  0  0  0  0  0  0
    1.0672    1.4504   -0.3632 C   0  0  1  0  0  0  0  0  0  0  0  0
    0.0994    2.6384   -0.1356 C   0  0  0  0  0  0  0  0  0  0  0  0
   -2.2029   -0.1536   -0.1431 C   0  0  0  0  0  0  0  0  0  0  0  0
   -2.0453   -1.5363   -0.2853 C   0  0  0  0  0  0  0  0  0  0  0  0
   -3.1878   -2.3238   -0.2260 C   0  0  0  0  0  0  0  0  0  0  0  0
   -4.4218   -1.7075   -0.0318 C   0  0  0  0  0  0  0  0  0  0  0  0
   -4.4770   -0.3141    0.0995 C   0  0  0  0  0  0  0  0  0  0  0  0
   -3.3771    0.4398    0.0427 N   0  0  0  0  0  0  0  0  0  0  0  0
   -5.7766    0.4115    0.3141 C   0  0  0  0  0  0  0  0  0  0  0  0
    2.1895    1.3806    0.6781 C   0  0  0  0  0  0  0  0  0  0  0  0
    3.2073    0.3048    0.3935 C   0  0  0  0  0  0  0  0  0  0  0  0
    4.4630    0.6320   -0.1272 C   0  0  0  0  0  0  0  0  0  0  0  0
    5.3993   -0.3599   -0.4185 C   0  0  0  0  0  0  0  0  0  0  0  0
    5.0885   -1.6987   -0.1913 C   0  0  0  0  0  0  0  0  0  0  0  0
    3.8377   -2.0371    0.3265 C   0  0  0  0  0  0  0  0  0  0  0  0
    2.9047   -1.0445    0.6154 C   0  0  0  0  0  0  0  0  0  0  0  0
    1.5316    1.4947   -1.3630 H   0  0  0  0  0  0  0  0  0  0  0  0
    0.2552    3.1195    0.8436 H   0  0  0  0  0  0  0  0  0  0  0  0
    0.1450    3.4042   -0.9205 H   0  0  0  0  0  0  0  0  0  0  0  0
   -1.0483   -1.9481   -0.4386 H   0  0  0  0  0  0  0  0  0  0  0  0
   -3.1211   -3.4077   -0.3321 H   0  0  0  0  0  0  0  0  0  0  0  0
   -5.3394   -2.2952    0.0169 H   0  0  0  0  0  0  0  0  0  0  0  0
   -5.7416    0.9642    1.2635 H   0  0  0  0  0  0  0  0  0  0  0  0
   -5.9257    1.1516   -0.4843 H   0  0  0  0  0  0  0  0  0  0  0  0
   -6.6308   -0.2762    0.3314 H   0  0  0  0  0  0  0  0  0  0  0  0
    2.6922    2.3602    0.7094 H   0  0  0  0  0  0  0  0  0  0  0  0
    1.7244    1.2212    1.6645 H   0  0  0  0  0  0  0  0  0  0  0  0
    4.7137    1.6813   -0.3026 H   0  0  0  0  0  0  0  0  0  0  0  0
    6.3757   -0.0839   -0.8202 H   0  0  0  0  0  0  0  0  0  0  0  0
    5.8193   -2.4778   -0.4136 H   0  0  0  0  0  0  0  0  0  0  0  0
    3.5883   -3.0841    0.5076 H   0  0  0  0  0  0  0  0  0  0  0  0
    1.9207   -1.3081    1.0061 H   0  0  0  0  0  0  0  0  0  0  0  0
  1  2  1  0  0  0  0
  1  5  1  0  0  0  0
  2  3  2  0  0  0  0
  2  6  1  0  0  0  0
  3  4  1  0  0  0  0
  4  5  1  0  0  0  0
  4 13  1  0  0  0  0
  4 20  1  6  0  0  0
  5 21  1  0  0  0  0
  5 22  1  0  0  0  0
  6  7  2  0  0  0  0
  6 11  1  0  0  0  0
  7  8  1  0  0  0  0
  7 23  1  0  0  0  0
  8  9  2  0  0  0  0
  8 24  1  0  0  0  0
  9 10  1  0  0  0  0
  9 25  1  0  0  0  0
 10 11  2  0  0  0  0
 10 12  1  0  0  0  0
 12 26  1  0  0  0  0
 12 27  1  0  0  0  0
 12 28  1  0  0  0  0
 13 14  1  0  0  0  0
 13 29  1  0  0  0  0
 13 30  1  0  0  0  0
 14 15  2  0  0  0  0
 14 19  1  0  0  0  0
 15 16  1  0  0  0  0
 15 31  1  0  0  0  0
 16 17  2  0  0  0  0
 16 32  1  0  0  0  0
 17 18  1  0  0  0  0
 17 33  1  0  0  0  0
 18 19  2  0  0  0  0
 18 34  1  0  0  0  0
 19 35  1  0  0  0  0
M  END
$$$$
