Title Card Required
 OpenBabel03192317513D

 39 43  0  0  1  0  0  0  0  0999 V2000
   -0.8171   -0.7462   -1.0220 O   0  0  0  0  0  0  0  0  0  0  0  0
   -0.7771    0.5892   -0.8443 C   0  0  0  0  0  0  0  0  0  0  0  0
   -1.8287    1.2665   -1.0660 N   0  0  0  0  0  0  0  0  0  0  0  0
   -2.8675    0.2996   -1.4133 C   0  0  1  0  0  0  0  0  0  0  0  0
   -2.1176   -1.0623   -1.5329 C   0  0  2  0  0  0  0  0  0  0  0  0
   -2.8421   -2.0770   -0.6381 C   0  0  0  0  0  0  0  0  0  0  0  0
   -3.8001   -1.2410    0.1775 C   0  0  0  0  0  0  0  0  0  0  0  0
   -4.6014   -1.6384    1.2473 C   0  0  0  0  0  0  0  0  0  0  0  0
   -5.4346   -0.6999    1.8554 C   0  0  0  0  0  0  0  0  0  0  0  0
   -5.4673    0.6224    1.4020 C   0  0  0  0  0  0  0  0  0  0  0  0
   -4.6656    1.0215    0.3334 C   0  0  0  0  0  0  0  0  0  0  0  0
   -3.8417    0.0785   -0.2760 C   0  0  0  0  0  0  0  0  0  0  0  0
    2.7239    0.8358    0.1086 C   0  0  0  0  0  0  0  0  0  0  0  0
    2.9045    2.1923    0.4070 C   0  0  0  0  0  0  0  0  0  0  0  0
    1.8153    3.0496    0.2865 C   0  0  0  0  0  0  0  0  0  0  0  0
    0.5901    2.5350   -0.1236 C   0  0  0  0  0  0  0  0  0  0  0  0
    0.5164    1.1651   -0.3974 C   0  0  0  0  0  0  0  0  0  0  0  0
    1.5508    0.3407   -0.2843 N   0  0  0  0  0  0  0  0  0  0  0  0
    3.8614   -0.1241    0.2186 C   0  0  0  0  0  0  0  0  0  0  0  0
    3.6678   -1.4780   -0.0840 C   0  0  0  0  0  0  0  0  0  0  0  0
    4.7513   -2.3415    0.0271 C   0  0  0  0  0  0  0  0  0  0  0  0
    5.9822   -1.8303    0.4331 C   0  0  0  0  0  0  0  0  0  0  0  0
    6.0692   -0.4660    0.7117 C   0  0  0  0  0  0  0  0  0  0  0  0
    5.0396    0.3670    0.6086 N   0  0  0  0  0  0  0  0  0  0  0  0
   -3.3796    0.6092   -2.3368 H   0  0  0  0  0  0  0  0  0  0  0  0
   -1.9905   -1.4180   -2.5647 H   0  0  0  0  0  0  0  0  0  0  0  0
   -3.3841   -2.8168   -1.2471 H   0  0  0  0  0  0  0  0  0  0  0  0
   -2.1160   -2.6254   -0.0213 H   0  0  0  0  0  0  0  0  0  0  0  0
   -4.5739   -2.6684    1.6086 H   0  0  0  0  0  0  0  0  0  0  0  0
   -6.0635   -0.9985    2.6957 H   0  0  0  0  0  0  0  0  0  0  0  0
   -6.1202    1.3463    1.8920 H   0  0  0  0  0  0  0  0  0  0  0  0
   -4.6714    2.0551   -0.0172 H   0  0  0  0  0  0  0  0  0  0  0  0
    3.8893    2.5329    0.7233 H   0  0  0  0  0  0  0  0  0  0  0  0
    1.9210    4.1119    0.5118 H   0  0  0  0  0  0  0  0  0  0  0  0
   -0.3032    3.1482   -0.2378 H   0  0  0  0  0  0  0  0  0  0  0  0
    2.6782   -1.8096   -0.3960 H   0  0  0  0  0  0  0  0  0  0  0  0
    4.6375   -3.4027   -0.2010 H   0  0  0  0  0  0  0  0  0  0  0  0
    6.8595   -2.4699    0.5322 H   0  0  0  0  0  0  0  0  0  0  0  0
    7.0192   -0.0286    1.0342 H   0  0  0  0  0  0  0  0  0  0  0  0
  1  2  1  0  0  0  0
  1  5  1  0  0  0  0
  2  3  2  0  0  0  0
  2 17  1  0  0  0  0
  3  4  1  0  0  0  0
  4  5  1  0  0  0  0
  4 12  1  0  0  0  0
  4 25  1  6  0  0  0
  5  6  1  0  0  0  0
  5 26  1  6  0  0  0
  6  7  1  0  0  0  0
  6 27  1  0  0  0  0
  6 28  1  0  0  0  0
  7  8  2  0  0  0  0
  7 12  1  0  0  0  0
  8  9  1  0  0  0  0
  8 29  1  0  0  0  0
  9 10  2  0  0  0  0
  9 30  1  0  0  0  0
 10 11  1  0  0  0  0
 10 31  1  0  0  0  0
 11 12  2  0  0  0  0
 11 32  1  0  0  0  0
 13 14  2  0  0  0  0
 13 18  1  0  0  0  0
 13 19  1  0  0  0  0
 14 15  1  0  0  0  0
 14 33  1  0  0  0  0
 15 16  2  0  0  0  0
 15 34  1  0  0  0  0
 16 17  1  0  0  0  0
 16 35  1  0  0  0  0
 17 18  2  0  0  0  0
 19 20  2  0  0  0  0
 19 24  1  0  0  0  0
 20 21  1  0  0  0  0
 20 36  1  0  0  0  0
 21 22  2  0  0  0  0
 21 37  1  0  0  0  0
 22 23  1  0  0  0  0
 22 38  1  0  0  0  0
 23 24  2  0  0  0  0
 23 39  1  0  0  0  0
M  END
$$$$
