Title Card Required
 OpenBabel03192317443D

117130  0  0  1  0  0  0  0  0999 V2000
    0.8413   -1.1529   -1.2599 C   0  0  2  0  0  0  0  0  0  0  0  0
    2.0499   -1.3563   -2.2153 C   0  0  0  0  0  0  0  0  0  0  0  0
    3.3318   -0.7774   -1.6686 C   0  0  0  0  0  0  0  0  0  0  0  0
    4.0739   -1.4519   -0.6958 C   0  0  0  0  0  0  0  0  0  0  0  0
    5.2358   -0.8958   -0.1591 C   0  0  0  0  0  0  0  0  0  0  0  0
    5.7014    0.3587   -0.5702 C   0  0  0  0  0  0  0  0  0  0  0  0
    4.9547    1.0274   -1.5516 C   0  0  0  0  0  0  0  0  0  0  0  0
    3.7994    0.4721   -2.0917 C   0  0  0  0  0  0  0  0  0  0  0  0
    6.9595    1.0098   -0.0023 C   0  0  2  0  0  0  0  0  0  0  0  0
    7.6968    0.0987    0.9968 C   0  0  0  0  0  0  0  0  0  0  0  0
    8.9534    0.7863    1.5473 C   0  0  1  0  0  0  0  0  0  0  0  0
    9.9069    1.1190    0.3931 C   0  0  0  0  0  0  0  0  0  0  0  0
    9.1969    2.0509   -0.5963 C   0  0  2  0  0  0  0  0  0  0  0  0
    8.7890    3.3447    0.1214 C   0  0  0  0  0  0  0  0  0  0  0  0
    7.8415    3.0125    1.2822 C   0  0  1  0  0  0  0  0  0  0  0  0
    6.5872    2.3184    0.7342 C   0  0  0  0  0  0  0  0  0  0  0  0
    8.5531    2.0788    2.2697 C   0  0  0  0  0  0  0  0  0  0  0  0
    7.9435    1.3553   -1.1435 C   0  0  0  0  0  0  0  0  0  0  0  0
    1.3712   -3.2591   -0.1928 O   0  0  0  0  0  0  0  0  0  0  0  0
    1.0181   -1.9664   -0.0043 C   0  0  0  0  0  0  0  0  0  0  0  0
    0.7873   -1.5700    1.1750 N   0  0  0  0  0  0  0  0  0  0  0  0
    0.8229   -2.7557    2.0270 C   0  0  2  0  0  0  0  0  0  0  0  0
    1.1903   -3.9277    1.0590 C   0  0  1  0  0  0  0  0  0  0  0  0
   -0.0130   -4.8887    1.0045 C   0  0  0  0  0  0  0  0  0  0  0  0
   -1.0367   -4.2743    1.9277 C   0  0  0  0  0  0  0  0  0  0  0  0
   -2.3218   -4.7324    2.2178 C   0  0  0  0  0  0  0  0  0  0  0  0
   -3.1319   -3.9874    3.0746 C   0  0  0  0  0  0  0  0  0  0  0  0
   -2.6653   -2.7959    3.6385 C   0  0  0  0  0  0  0  0  0  0  0  0
   -1.3770   -2.3419    3.3582 C   0  0  0  0  0  0  0  0  0  0  0  0
   -0.5688   -3.0965    2.5111 C   0  0  0  0  0  0  0  0  0  0  0  0
   -0.8029   -1.0078   -3.0203 O   0  0  0  0  0  0  0  0  0  0  0  0
   -0.4026   -1.6909   -1.9263 C   0  0  0  0  0  0  0  0  0  0  0  0
   -1.1047   -2.6679   -1.5278 N   0  0  0  0  0  0  0  0  0  0  0  0
   -2.2683   -2.7321   -2.4074 C   0  0  2  0  0  0  0  0  0  0  0  0
   -2.0857   -1.5318   -3.3903 C   0  0  1  0  0  0  0  0  0  0  0  0
   -3.2258   -0.5308   -3.1171 C   0  0  0  0  0  0  0  0  0  0  0  0
   -4.1167   -1.2323   -2.1207 C   0  0  0  0  0  0  0  0  0  0  0  0
   -5.3345   -0.7997   -1.5991 C   0  0  0  0  0  0  0  0  0  0  0  0
   -5.9640   -1.5653   -0.6175 C   0  0  0  0  0  0  0  0  0  0  0  0
   -5.3769   -2.7442   -0.1480 C   0  0  0  0  0  0  0  0  0  0  0  0
   -4.1693   -3.1899   -0.6854 C   0  0  0  0  0  0  0  0  0  0  0  0
   -3.5616   -2.4361   -1.6863 C   0  0  0  0  0  0  0  0  0  0  0  0
    1.5321   -2.6101    2.8559 H   0  0  0  0  0  0  0  0  0  0  0  0
   -2.3007   -3.7132   -2.9069 H   0  0  0  0  0  0  0  0  0  0  0  0
    2.1309   -4.4372    1.3042 H   0  0  0  0  0  0  0  0  0  0  0  0
   -2.0285   -1.8260   -4.4457 H   0  0  0  0  0  0  0  0  0  0  0  0
    0.6575    0.3498   -0.9355 C   0  0  0  0  0  0  0  0  0  0  0  0
   -0.7339    0.8655   -0.6317 C   0  0  0  0  0  0  0  0  0  0  0  0
   -1.6872    0.1748    0.1244 C   0  0  0  0  0  0  0  0  0  0  0  0
   -2.9317    0.7449    0.4053 C   0  0  0  0  0  0  0  0  0  0  0  0
   -3.2669    2.0291   -0.0356 C   0  0  0  0  0  0  0  0  0  0  0  0
   -2.3165    2.7052   -0.8148 C   0  0  0  0  0  0  0  0  0  0  0  0
   -1.0851    2.1337   -1.1117 C   0  0  0  0  0  0  0  0  0  0  0  0
   -4.5651    2.7331    0.3451 C   0  0  2  0  0  0  0  0  0  0  0  0
   -5.5126    1.8238    1.1469 C   0  0  0  0  0  0  0  0  0  0  0  0
   -6.7948    2.5726    1.5334 C   0  0  1  0  0  0  0  0  0  0  0  0
   -6.4361    3.7853    2.4026 C   0  0  0  0  0  0  0  0  0  0  0  0
   -5.5090    4.7189    1.6142 C   0  0  2  0  0  0  0  0  0  0  0  0
   -6.2257    5.1939    0.3425 C   0  0  0  0  0  0  0  0  0  0  0  0
   -6.5943    3.9818   -0.5251 C   0  0  1  0  0  0  0  0  0  0  0  0
   -5.3172    3.2246   -0.9126 C   0  0  0  0  0  0  0  0  0  0  0  0
   -7.5172    3.0466    0.2657 C   0  0  0  0  0  0  0  0  0  0  0  0
   -4.2337    3.9628    1.2239 C   0  0  0  0  0  0  0  0  0  0  0  0
    2.1624   -2.4349   -2.3954 H   0  0  0  0  0  0  0  0  0  0  0  0
    1.7946   -0.8750   -3.1699 H   0  0  0  0  0  0  0  0  0  0  0  0
    3.7384   -2.4352   -0.3586 H   0  0  0  0  0  0  0  0  0  0  0  0
    5.7804   -1.4646    0.5937 H   0  0  0  0  0  0  0  0  0  0  0  0
    5.2812    2.0068   -1.9076 H   0  0  0  0  0  0  0  0  0  0  0  0
    3.2504    1.0184   -2.8628 H   0  0  0  0  0  0  0  0  0  0  0  0
    7.0242   -0.1572    1.8321 H   0  0  0  0  0  0  0  0  0  0  0  0
    7.9755   -0.8457    0.4997 H   0  0  0  0  0  0  0  0  0  0  0  0
    9.4525    0.1062    2.2551 H   0  0  0  0  0  0  0  0  0  0  0  0
   10.8183    1.6010    0.7835 H   0  0  0  0  0  0  0  0  0  0  0  0
   10.2196    0.1938   -0.1180 H   0  0  0  0  0  0  0  0  0  0  0  0
    9.8725    2.2885   -1.4330 H   0  0  0  0  0  0  0  0  0  0  0  0
    9.6846    3.8626    0.5023 H   0  0  0  0  0  0  0  0  0  0  0  0
    8.2936    4.0299   -0.5861 H   0  0  0  0  0  0  0  0  0  0  0  0
    7.5457    3.9403    1.7965 H   0  0  0  0  0  0  0  0  0  0  0  0
    6.0579    2.9933    0.0420 H   0  0  0  0  0  0  0  0  0  0  0  0
    5.8865    2.0841    1.5528 H   0  0  0  0  0  0  0  0  0  0  0  0
    7.8866    1.8481    3.1169 H   0  0  0  0  0  0  0  0  0  0  0  0
    9.4471    2.5737    2.6834 H   0  0  0  0  0  0  0  0  0  0  0  0
    7.4504    2.0117   -1.8775 H   0  0  0  0  0  0  0  0  0  0  0  0
    8.2182    0.4287   -1.6747 H   0  0  0  0  0  0  0  0  0  0  0  0
    0.2610   -5.9090    1.3116 H   0  0  0  0  0  0  0  0  0  0  0  0
   -0.3845   -4.9237   -0.0304 H   0  0  0  0  0  0  0  0  0  0  0  0
   -2.6927   -5.6601    1.7760 H   0  0  0  0  0  0  0  0  0  0  0  0
   -4.1409   -4.3345    3.3048 H   0  0  0  0  0  0  0  0  0  0  0  0
   -3.3144   -2.2185    4.2986 H   0  0  0  0  0  0  0  0  0  0  0  0
   -1.0079   -1.4053    3.7805 H   0  0  0  0  0  0  0  0  0  0  0  0
   -3.7611   -0.2531   -4.0367 H   0  0  0  0  0  0  0  0  0  0  0  0
   -2.8066    0.3911   -2.6783 H   0  0  0  0  0  0  0  0  0  0  0  0
   -5.7852    0.1341   -1.9434 H   0  0  0  0  0  0  0  0  0  0  0  0
   -6.9176   -1.2326   -0.2024 H   0  0  0  0  0  0  0  0  0  0  0  0
   -5.8693   -3.3208    0.6367 H   0  0  0  0  0  0  0  0  0  0  0  0
   -3.7010   -4.1078   -0.3248 H   0  0  0  0  0  0  0  0  0  0  0  0
    1.3292    0.5818   -0.0951 H   0  0  0  0  0  0  0  0  0  0  0  0
    1.0306    0.9175   -1.7997 H   0  0  0  0  0  0  0  0  0  0  0  0
   -1.4636   -0.8191    0.5110 H   0  0  0  0  0  0  0  0  0  0  0  0
   -3.6419    0.1595    0.9911 H   0  0  0  0  0  0  0  0  0  0  0  0
   -2.5323    3.7087   -1.1881 H   0  0  0  0  0  0  0  0  0  0  0  0
   -0.3704    2.6914   -1.7219 H   0  0  0  0  0  0  0  0  0  0  0  0
   -5.7595    0.9295    0.5527 H   0  0  0  0  0  0  0  0  0  0  0  0
   -5.0000    1.4738    2.0583 H   0  0  0  0  0  0  0  0  0  0  0  0
   -7.4508    1.8931    2.0999 H   0  0  0  0  0  0  0  0  0  0  0  0
   -7.3509    4.3242    2.7000 H   0  0  0  0  0  0  0  0  0  0  0  0
   -5.9386    3.4508    3.3276 H   0  0  0  0  0  0  0  0  0  0  0  0
   -5.2398    5.5883    2.2347 H   0  0  0  0  0  0  0  0  0  0  0  0
   -7.1352    5.7568    0.6092 H   0  0  0  0  0  0  0  0  0  0  0  0
   -5.5739    5.8781   -0.2254 H   0  0  0  0  0  0  0  0  0  0  0  0
   -7.1049    4.3231   -1.4394 H   0  0  0  0  0  0  0  0  0  0  0  0
   -4.6631    3.8810   -1.5086 H   0  0  0  0  0  0  0  0  0  0  0  0
   -5.5626    2.3577   -1.5488 H   0  0  0  0  0  0  0  0  0  0  0  0
   -7.7981    2.1793   -0.3560 H   0  0  0  0  0  0  0  0  0  0  0  0
   -8.4495    3.5703    0.5339 H   0  0  0  0  0  0  0  0  0  0  0  0
   -3.5522    4.6360    0.6793 H   0  0  0  0  0  0  0  0  0  0  0  0
   -3.6961    3.6224    2.1245 H   0  0  0  0  0  0  0  0  0  0  0  0
  1  2  1  6  0  0  0
  1 20  1  0  0  0  0
  1 32  1  0  0  0  0
  1 47  1  0  0  0  0
  2  3  1  0  0  0  0
  2 64  1  0  0  0  0
  2 65  1  0  0  0  0
  3  4  2  0  0  0  0
  3  8  1  0  0  0  0
  4  5  1  0  0  0  0
  4 66  1  0  0  0  0
  5  6  2  0  0  0  0
  5 67  1  0  0  0  0
  6  7  1  0  0  0  0
  7  8  2  0  0  0  0
  7 68  1  0  0  0  0
  8 69  1  0  0  0  0
  9  6  1  6  0  0  0
  9 10  1  0  0  0  0
  9 16  1  0  0  0  0
  9 18  1  0  0  0  0
 10 11  1  0  0  0  0
 10 70  1  0  0  0  0
 10 71  1  0  0  0  0
 11 12  1  0  0  0  0
 11 17  1  0  0  0  0
 11 72  1  1  0  0  0
 12 13  1  0  0  0  0
 12 73  1  0  0  0  0
 12 74  1  0  0  0  0
 13 14  1  0  0  0  0
 13 18  1  0  0  0  0
 13 75  1  6  0  0  0
 14 15  1  0  0  0  0
 14 76  1  0  0  0  0
 14 77  1  0  0  0  0
 15 16  1  0  0  0  0
 15 17  1  0  0  0  0
 15 78  1  1  0  0  0
 16 79  1  0  0  0  0
 16 80  1  0  0  0  0
 17 81  1  0  0  0  0
 17 82  1  0  0  0  0
 18 83  1  0  0  0  0
 18 84  1  0  0  0  0
 19 20  1  0  0  0  0
 19 23  1  0  0  0  0
 20 21  2  0  0  0  0
 21 22  1  0  0  0  0
 22 23  1  0  0  0  0
 22 30  1  0  0  0  0
 22 43  1  1  0  0  0
 23 24  1  0  0  0  0
 23 45  1  1  0  0  0
 24 25  1  0  0  0  0
 24 85  1  0  0  0  0
 24 86  1  0  0  0  0
 25 26  2  0  0  0  0
 25 30  1  0  0  0  0
 26 27  1  0  0  0  0
 26 87  1  0  0  0  0
 27 28  2  0  0  0  0
 27 88  1  0  0  0  0
 28 29  1  0  0  0  0
 28 89  1  0  0  0  0
 29 30  2  0  0  0  0
 29 90  1  0  0  0  0
 31 32  1  0  0  0  0
 31 35  1  0  0  0  0
 32 33  2  0  0  0  0
 33 34  1  0  0  0  0
 34 35  1  0  0  0  0
 34 42  1  0  0  0  0
 34 44  1  6  0  0  0
 35 36  1  0  0  0  0
 35 46  1  6  0  0  0
 36 37  1  0  0  0  0
 36 91  1  0  0  0  0
 36 92  1  0  0  0  0
 37 38  2  0  0  0  0
 37 42  1  0  0  0  0
 38 39  1  0  0  0  0
 38 93  1  0  0  0  0
 39 40  2  0  0  0  0
 39 94  1  0  0  0  0
 40 41  1  0  0  0  0
 40 95  1  0  0  0  0
 41 42  2  0  0  0  0
 41 96  1  0  0  0  0
 47 48  1  0  0  0  0
 47 97  1  0  0  0  0
 47 98  1  0  0  0  0
 48 49  2  0  0  0  0
 48 53  1  0  0  0  0
 49 50  1  0  0  0  0
 49 99  1  0  0  0  0
 50 51  2  0  0  0  0
 50100  1  0  0  0  0
 51 52  1  0  0  0  0
 52 53  2  0  0  0  0
 52101  1  0  0  0  0
 53102  1  0  0  0  0
 54 51  1  6  0  0  0
 54 55  1  0  0  0  0
 54 61  1  0  0  0  0
 54 63  1  0  0  0  0
 55 56  1  0  0  0  0
 55103  1  0  0  0  0
 55104  1  0  0  0  0
 56 57  1  0  0  0  0
 56 62  1  0  0  0  0
 56105  1  1  0  0  0
 57 58  1  0  0  0  0
 57106  1  0  0  0  0
 57107  1  0  0  0  0
 58 59  1  0  0  0  0
 58 63  1  0  0  0  0
 58108  1  1  0  0  0
 59 60  1  0  0  0  0
 59109  1  0  0  0  0
 59110  1  0  0  0  0
 60 61  1  0  0  0  0
 60 62  1  0  0  0  0
 60111  1  6  0  0  0
 61112  1  0  0  0  0
 61113  1  0  0  0  0
 62114  1  0  0  0  0
 62115  1  0  0  0  0
 63116  1  0  0  0  0
 63117  1  0  0  0  0
M  END
$$$$
