Title Card Required
 OpenBabel03192317493D

 61 63  0  0  1  0  0  0  0  0999 V2000
   -2.9394   -0.4538   -1.6789 C   0  0  0  0  0  0  0  0  0  0  0  0
   -1.5652   -0.0683   -1.6231 O   0  0  0  0  0  0  0  0  0  0  0  0
   -1.3971    0.5447   -0.4250 C   0  0  0  0  0  0  0  0  0  0  0  0
   -0.0289    1.1522   -0.2160 C   0  0  0  0  0  0  0  0  0  0  0  0
    0.1184    1.5785    1.2539 C   0  0  0  0  0  0  0  0  0  0  0  0
    1.2547    2.5706    1.5233 C   0  0  0  0  0  0  0  0  0  0  0  0
    0.8094    4.0323    1.4126 C   0  0  0  0  0  0  0  0  0  0  0  0
    0.4754    4.5213    0.0031 C   0  0  0  0  0  0  0  0  0  0  0  0
   -0.4747    3.6340   -0.8084 C   0  0  0  0  0  0  0  0  0  0  0  0
    0.1614    2.3057   -1.2297 C   0  0  0  0  0  0  0  0  0  0  0  0
    0.9434    0.0229   -0.5182 C   0  0  0  0  0  0  0  0  0  0  0  0
    1.1997   -0.9482    0.2545 N   0  0  0  0  0  0  0  0  0  0  0  0
    2.1789   -1.7975   -0.4228 C   0  0  2  0  0  0  0  0  0  0  0  0
    3.5035   -1.8783    0.3726 C   0  0  0  0  0  0  0  0  0  0  0  0
    2.2878   -1.1657   -1.8349 C   0  0  0  0  0  0  0  0  0  0  0  0
    1.5484    0.0512   -1.7236 O   0  0  0  0  0  0  0  0  0  0  0  0
   -2.3677    0.5352    0.3868 N   0  0  0  0  0  0  0  0  0  0  0  0
   -3.4195   -0.2858   -0.2189 C   0  0  2  0  0  0  0  0  0  0  0  0
   -3.5957   -1.6122    0.5623 C   0  0  0  0  0  0  0  0  0  0  0  0
   -3.9357   -1.2779    2.0177 C   0  0  0  0  0  0  0  0  0  0  0  0
   -4.7530   -2.4009   -0.0573 C   0  0  0  0  0  0  0  0  0  0  0  0
   -2.3067   -2.4404    0.5146 C   0  0  0  0  0  0  0  0  0  0  0  0
    3.2055   -2.4871    1.7458 C   0  0  0  0  0  0  0  0  0  0  0  0
    4.4846   -2.7828   -0.3787 C   0  0  0  0  0  0  0  0  0  0  0  0
    4.1026   -0.4812    0.5558 C   0  0  0  0  0  0  0  0  0  0  0  0
   -3.0026   -1.4803   -2.0612 H   0  0  0  0  0  0  0  0  0  0  0  0
   -3.4634    0.2202   -2.3733 H   0  0  0  0  0  0  0  0  0  0  0  0
   -0.8352    2.0163    1.5798 H   0  0  0  0  0  0  0  0  0  0  0  0
    0.2485    0.6598    1.8412 H   0  0  0  0  0  0  0  0  0  0  0  0
    1.6286    2.4033    2.5445 H   0  0  0  0  0  0  0  0  0  0  0  0
    2.1118    2.3761    0.8541 H   0  0  0  0  0  0  0  0  0  0  0  0
   -0.0762    4.1612    2.0584 H   0  0  0  0  0  0  0  0  0  0  0  0
    1.5896    4.6876    1.8311 H   0  0  0  0  0  0  0  0  0  0  0  0
    0.0517    5.5353    0.0783 H   0  0  0  0  0  0  0  0  0  0  0  0
    1.4113    4.6247   -0.5735 H   0  0  0  0  0  0  0  0  0  0  0  0
   -1.4113    3.4528   -0.2528 H   0  0  0  0  0  0  0  0  0  0  0  0
   -0.7614    4.1853   -1.7164 H   0  0  0  0  0  0  0  0  0  0  0  0
    1.2390    2.4554   -1.3914 H   0  0  0  0  0  0  0  0  0  0  0  0
   -0.2337    1.9633   -2.1959 H   0  0  0  0  0  0  0  0  0  0  0  0
    1.7761   -2.8218   -0.4873 H   0  0  0  0  0  0  0  0  0  0  0  0
    3.3145   -0.9233   -2.1403 H   0  0  0  0  0  0  0  0  0  0  0  0
    1.8209   -1.7844   -2.6142 H   0  0  0  0  0  0  0  0  0  0  0  0
   -4.3774    0.2563   -0.1763 H   0  0  0  0  0  0  0  0  0  0  0  0
   -4.8541   -0.6726    2.0753 H   0  0  0  0  0  0  0  0  0  0  0  0
   -4.0997   -2.2013    2.5936 H   0  0  0  0  0  0  0  0  0  0  0  0
   -3.1220   -0.7071    2.4837 H   0  0  0  0  0  0  0  0  0  0  0  0
   -4.5524   -2.6756   -1.1043 H   0  0  0  0  0  0  0  0  0  0  0  0
   -4.9202   -3.3340    0.5014 H   0  0  0  0  0  0  0  0  0  0  0  0
   -5.6873   -1.8184   -0.0296 H   0  0  0  0  0  0  0  0  0  0  0  0
   -2.0370   -2.7210   -0.5159 H   0  0  0  0  0  0  0  0  0  0  0  0
   -1.4578   -1.8900    0.9473 H   0  0  0  0  0  0  0  0  0  0  0  0
   -2.4377   -3.3716    1.0865 H   0  0  0  0  0  0  0  0  0  0  0  0
    2.7918   -3.5023    1.6423 H   0  0  0  0  0  0  0  0  0  0  0  0
    4.1265   -2.5541    2.3447 H   0  0  0  0  0  0  0  0  0  0  0  0
    2.4725   -1.8749    2.2877 H   0  0  0  0  0  0  0  0  0  0  0  0
    4.7561   -2.3734   -1.3637 H   0  0  0  0  0  0  0  0  0  0  0  0
    5.4149   -2.8972    0.1976 H   0  0  0  0  0  0  0  0  0  0  0  0
    4.0569   -3.7863   -0.5308 H   0  0  0  0  0  0  0  0  0  0  0  0
    4.3033    0.0124   -0.4084 H   0  0  0  0  0  0  0  0  0  0  0  0
    3.4199    0.1581    1.1346 H   0  0  0  0  0  0  0  0  0  0  0  0
    5.0567   -0.5439    1.1006 H   0  0  0  0  0  0  0  0  0  0  0  0
  1  2  1  0  0  0  0
  1 18  1  0  0  0  0
  1 26  1  0  0  0  0
  1 27  1  0  0  0  0
  2  3  1  0  0  0  0
  3  4  1  0  0  0  0
  3 17  2  0  0  0  0
  4  5  1  0  0  0  0
  4 10  1  0  0  0  0
  4 11  1  0  0  0  0
  5  6  1  0  0  0  0
  5 28  1  0  0  0  0
  5 29  1  0  0  0  0
  6  7  1  0  0  0  0
  6 30  1  0  0  0  0
  6 31  1  0  0  0  0
  7  8  1  0  0  0  0
  7 32  1  0  0  0  0
  7 33  1  0  0  0  0
  8  9  1  0  0  0  0
  8 34  1  0  0  0  0
  8 35  1  0  0  0  0
  9 10  1  0  0  0  0
  9 36  1  0  0  0  0
  9 37  1  0  0  0  0
 10 38  1  0  0  0  0
 10 39  1  0  0  0  0
 11 12  2  0  0  0  0
 11 16  1  0  0  0  0
 12 13  1  0  0  0  0
 13 14  1  0  0  0  0
 13 15  1  0  0  0  0
 13 40  1  6  0  0  0
 14 23  1  0  0  0  0
 14 24  1  0  0  0  0
 14 25  1  0  0  0  0
 15 16  1  0  0  0  0
 15 41  1  0  0  0  0
 15 42  1  0  0  0  0
 17 18  1  0  0  0  0
 18 19  1  0  0  0  0
 18 43  1  1  0  0  0
 19 20  1  0  0  0  0
 19 21  1  0  0  0  0
 19 22  1  0  0  0  0
 20 44  1  0  0  0  0
 20 45  1  0  0  0  0
 20 46  1  0  0  0  0
 21 47  1  0  0  0  0
 21 48  1  0  0  0  0
 21 49  1  0  0  0  0
 22 50  1  0  0  0  0
 22 51  1  0  0  0  0
 22 52  1  0  0  0  0
 23 53  1  0  0  0  0
 23 54  1  0  0  0  0
 23 55  1  0  0  0  0
 24 56  1  0  0  0  0
 24 57  1  0  0  0  0
 24 58  1  0  0  0  0
 25 59  1  0  0  0  0
 25 60  1  0  0  0  0
 25 61  1  0  0  0  0
M  END
$$$$
