Title Card Required
 OpenBabel03192317423D

 75 82  0  0  1  0  0  0  0  0999 V2000
    1.4909    0.2959   -0.7437 O   0  0  0  0  0  0  0  0  0  0  0  0
    0.8460    1.2869   -0.0777 C   0  0  0  0  0  0  0  0  0  0  0  0
    1.4948    1.9502    0.7810 N   0  0  0  0  0  0  0  0  0  0  0  0
    2.8610    1.4341    0.7725 C   0  0  2  0  0  0  0  0  0  0  0  0
    2.7664    0.1453   -0.1121 C   0  0  2  0  0  0  0  0  0  0  0  0
   -0.5866    1.4777   -0.4844 C   0  0  0  0  0  0  0  0  0  0  0  0
   -2.1720   -1.5235    0.8147 C   0  0  1  0  0  0  0  0  0  0  0  0
   -2.1942   -1.8186   -0.7281 C   0  0  1  0  0  0  0  0  0  0  0  0
   -1.7092   -0.5776   -1.3223 N   0  0  0  0  0  0  0  0  0  0  0  0
   -1.2635    0.1322   -0.3761 C   0  0  0  0  0  0  0  0  0  0  0  0
   -1.3727   -0.3378    0.8884 O   0  0  0  0  0  0  0  0  0  0  0  0
   -0.7353    2.0120   -1.9308 C   0  0  0  0  0  0  0  0  0  0  0  0
   -2.0618    2.7324   -1.8695 C   0  0  0  0  0  0  0  0  0  0  0  0
   -2.4027    3.0139   -0.5406 C   0  0  0  0  0  0  0  0  0  0  0  0
   -1.3292    2.5105    0.3931 C   0  0  0  0  0  0  0  0  0  0  0  0
   -2.9013    3.1158   -2.9102 C   0  0  0  0  0  0  0  0  0  0  0  0
   -4.0919    3.7817   -2.6087 C   0  0  0  0  0  0  0  0  0  0  0  0
   -4.4342    4.0591   -1.2842 C   0  0  0  0  0  0  0  0  0  0  0  0
   -3.5889    3.6767   -0.2392 C   0  0  0  0  0  0  0  0  0  0  0  0
    3.8732   -0.0088   -1.1155 C   0  0  0  0  0  0  0  0  0  0  0  0
   -3.5417   -1.2785    1.3929 C   0  0  0  0  0  0  0  0  0  0  0  0
   -1.3308   -3.0081   -1.0946 C   0  0  0  0  0  0  0  0  0  0  0  0
    3.4211    1.1455    2.1430 C   0  0  0  0  0  0  0  0  0  0  0  0
   -4.1770   -2.2797    2.1294 C   0  0  0  0  0  0  0  0  0  0  0  0
   -5.4716   -2.0883    2.6121 C   0  0  0  0  0  0  0  0  0  0  0  0
   -6.1380   -0.8899    2.3640 C   0  0  0  0  0  0  0  0  0  0  0  0
   -5.5065    0.1148    1.6290 C   0  0  0  0  0  0  0  0  0  0  0  0
   -4.2153   -0.0771    1.1441 C   0  0  0  0  0  0  0  0  0  0  0  0
   -1.8853   -4.2914   -1.0715 C   0  0  0  0  0  0  0  0  0  0  0  0
   -1.0935   -5.4096   -1.3245 C   0  0  0  0  0  0  0  0  0  0  0  0
    0.2630   -5.2531   -1.6084 C   0  0  0  0  0  0  0  0  0  0  0  0
    0.8196   -3.9751   -1.6380 C   0  0  0  0  0  0  0  0  0  0  0  0
    0.0284   -2.8551   -1.3829 C   0  0  0  0  0  0  0  0  0  0  0  0
    2.5773    0.7906    3.1989 C   0  0  0  0  0  0  0  0  0  0  0  0
    3.1132    0.4547    4.4407 C   0  0  0  0  0  0  0  0  0  0  0  0
    4.4944    0.4659    4.6364 C   0  0  0  0  0  0  0  0  0  0  0  0
    5.3399    0.8209    3.5862 C   0  0  0  0  0  0  0  0  0  0  0  0
    4.8041    1.1633    2.3454 C   0  0  0  0  0  0  0  0  0  0  0  0
    3.7865    0.5861   -2.3771 C   0  0  0  0  0  0  0  0  0  0  0  0
    4.8520    0.4913   -3.2698 C   0  0  0  0  0  0  0  0  0  0  0  0
    6.0131   -0.1922   -2.9080 C   0  0  0  0  0  0  0  0  0  0  0  0
    6.1022   -0.7883   -1.6507 C   0  0  0  0  0  0  0  0  0  0  0  0
    5.0341   -0.7012   -0.7589 C   0  0  0  0  0  0  0  0  0  0  0  0
    3.5099    2.1758    0.2760 H   0  0  0  0  0  0  0  0  0  0  0  0
    2.7158   -0.7442    0.5375 H   0  0  0  0  0  0  0  0  0  0  0  0
   -1.6572   -2.3195    1.3691 H   0  0  0  0  0  0  0  0  0  0  0  0
   -3.2261   -2.0111   -1.0572 H   0  0  0  0  0  0  0  0  0  0  0  0
    0.0794    2.7239   -2.1460 H   0  0  0  0  0  0  0  0  0  0  0  0
   -0.7053    1.1990   -2.6662 H   0  0  0  0  0  0  0  0  0  0  0  0
   -1.7069    2.0645    1.3232 H   0  0  0  0  0  0  0  0  0  0  0  0
   -0.6274    3.3122    0.6704 H   0  0  0  0  0  0  0  0  0  0  0  0
   -2.6415    2.8897   -3.9462 H   0  0  0  0  0  0  0  0  0  0  0  0
   -4.7643    4.0793   -3.4149 H   0  0  0  0  0  0  0  0  0  0  0  0
   -5.3698    4.5755   -1.0638 H   0  0  0  0  0  0  0  0  0  0  0  0
   -3.8566    3.8914    0.7978 H   0  0  0  0  0  0  0  0  0  0  0  0
   -3.6509   -3.2160    2.3316 H   0  0  0  0  0  0  0  0  0  0  0  0
   -5.9578   -2.8758    3.1900 H   0  0  0  0  0  0  0  0  0  0  0  0
   -7.1489   -0.7371    2.7448 H   0  0  0  0  0  0  0  0  0  0  0  0
   -6.0222    1.0556    1.4288 H   0  0  0  0  0  0  0  0  0  0  0  0
   -3.7320    0.7144    0.5649 H   0  0  0  0  0  0  0  0  0  0  0  0
   -2.9501   -4.4142   -0.8559 H   0  0  0  0  0  0  0  0  0  0  0  0
   -1.5379   -6.4062   -1.3069 H   0  0  0  0  0  0  0  0  0  0  0  0
    0.8839   -6.1269   -1.8128 H   0  0  0  0  0  0  0  0  0  0  0  0
    1.8791   -3.8447   -1.8660 H   0  0  0  0  0  0  0  0  0  0  0  0
    0.4634   -1.8537   -1.4156 H   0  0  0  0  0  0  0  0  0  0  0  0
    1.4971    0.7921    3.0389 H   0  0  0  0  0  0  0  0  0  0  0  0
    2.4480    0.1856    5.2628 H   0  0  0  0  0  0  0  0  0  0  0  0
    4.9113    0.2032    5.6099 H   0  0  0  0  0  0  0  0  0  0  0  0
    6.4207    0.8393    3.7354 H   0  0  0  0  0  0  0  0  0  0  0  0
    5.4642    1.4500    1.5226 H   0  0  0  0  0  0  0  0  0  0  0  0
    2.8717    1.1106   -2.6586 H   0  0  0  0  0  0  0  0  0  0  0  0
    4.7735    0.9505   -4.2565 H   0  0  0  0  0  0  0  0  0  0  0  0
    6.8454   -0.2660   -3.6094 H   0  0  0  0  0  0  0  0  0  0  0  0
    7.0037   -1.3328   -1.3656 H   0  0  0  0  0  0  0  0  0  0  0  0
    5.0984   -1.1751    0.2238 H   0  0  0  0  0  0  0  0  0  0  0  0
  1  2  1  0  0  0  0
  1  5  1  0  0  0  0
  2  3  2  0  0  0  0
  2  6  1  0  0  0  0
  3  4  1  0  0  0  0
  4  5  1  0  0  0  0
  4 23  1  0  0  0  0
  4 44  1  6  0  0  0
  5 20  1  0  0  0  0
  5 45  1  1  0  0  0
  6 10  1  0  0  0  0
  6 12  1  0  0  0  0
  6 15  1  0  0  0  0
  7  8  1  0  0  0  0
  7 11  1  0  0  0  0
  7 21  1  0  0  0  0
  7 46  1  1  0  0  0
  8  9  1  0  0  0  0
  8 22  1  0  0  0  0
  8 47  1  6  0  0  0
  9 10  2  0  0  0  0
 10 11  1  0  0  0  0
 12 13  1  0  0  0  0
 12 48  1  0  0  0  0
 12 49  1  0  0  0  0
 13 14  2  0  0  0  0
 13 16  1  0  0  0  0
 14 15  1  0  0  0  0
 14 19  1  0  0  0  0
 15 50  1  0  0  0  0
 15 51  1  0  0  0  0
 16 17  2  0  0  0  0
 16 52  1  0  0  0  0
 17 18  1  0  0  0  0
 17 53  1  0  0  0  0
 18 19  2  0  0  0  0
 18 54  1  0  0  0  0
 19 55  1  0  0  0  0
 20 39  2  0  0  0  0
 20 43  1  0  0  0  0
 21 24  2  0  0  0  0
 21 28  1  0  0  0  0
 22 29  2  0  0  0  0
 22 33  1  0  0  0  0
 23 34  2  0  0  0  0
 23 38  1  0  0  0  0
 24 25  1  0  0  0  0
 24 56  1  0  0  0  0
 25 26  2  0  0  0  0
 25 57  1  0  0  0  0
 26 27  1  0  0  0  0
 26 58  1  0  0  0  0
 27 28  2  0  0  0  0
 27 59  1  0  0  0  0
 28 60  1  0  0  0  0
 29 30  1  0  0  0  0
 29 61  1  0  0  0  0
 30 31  2  0  0  0  0
 30 62  1  0  0  0  0
 31 32  1  0  0  0  0
 31 63  1  0  0  0  0
 32 33  2  0  0  0  0
 32 64  1  0  0  0  0
 33 65  1  0  0  0  0
 34 35  1  0  0  0  0
 34 66  1  0  0  0  0
 35 36  2  0  0  0  0
 35 67  1  0  0  0  0
 36 37  1  0  0  0  0
 36 68  1  0  0  0  0
 37 38  2  0  0  0  0
 37 69  1  0  0  0  0
 38 70  1  0  0  0  0
 39 40  1  0  0  0  0
 39 71  1  0  0  0  0
 40 41  2  0  0  0  0
 40 72  1  0  0  0  0
 41 42  1  0  0  0  0
 41 73  1  0  0  0  0
 42 43  2  0  0  0  0
 42 74  1  0  0  0  0
 43 75  1  0  0  0  0
M  END
$$$$
