Title Card Required
 OpenBabel03192317473D

 62 67  0  0  1  0  0  0  0  0999 V2000
   -3.0960    1.5922   -0.5602 C   0  0  0  0  0  0  0  0  0  0  0  0
   -2.9381    0.2022   -0.5663 C   0  0  0  0  0  0  0  0  0  0  0  0
   -1.7541   -0.3985   -0.5721 N   0  0  0  0  0  0  0  0  0  0  0  0
   -0.6559    0.3559   -0.5708 C   0  0  0  0  0  0  0  0  0  0  0  0
   -0.7022    1.7559   -0.5671 C   0  0  0  0  0  0  0  0  0  0  0  0
   -1.9473    2.3766   -0.5617 C   0  0  0  0  0  0  0  0  0  0  0  0
    0.6550   -0.3566   -0.5702 C   0  0  0  0  0  0  0  0  0  0  0  0
    1.7532    0.3978   -0.5718 N   0  0  0  0  0  0  0  0  0  0  0  0
    2.9372   -0.2029   -0.5650 C   0  0  0  0  0  0  0  0  0  0  0  0
    3.0951   -1.5929   -0.5576 C   0  0  0  0  0  0  0  0  0  0  0  0
    1.9463   -2.3773   -0.5589 C   0  0  0  0  0  0  0  0  0  0  0  0
    0.7012   -1.7566   -0.5653 C   0  0  0  0  0  0  0  0  0  0  0  0
   -4.1472   -0.6595   -0.5651 C   0  0  0  0  0  0  0  0  0  0  0  0
    4.1463    0.6588   -0.5641 C   0  0  0  0  0  0  0  0  0  0  0  0
   -3.9474   -1.9861   -0.6759 O   0  0  0  0  0  0  0  0  0  0  0  0
   -5.2397   -2.5917   -0.6335 C   0  0  0  0  0  0  0  0  0  0  0  0
   -6.2174   -1.3945   -0.5037 C   0  0  2  0  0  0  0  0  0  0  0  0
   -5.3379   -0.2289   -0.4742 N   0  0  0  0  0  0  0  0  0  0  0  0
    5.3370    0.2282   -0.4718 N   0  0  0  0  0  0  0  0  0  0  0  0
    6.2165    1.3937   -0.5031 C   0  0  1  0  0  0  0  0  0  0  0  0
    5.2389    2.5909   -0.6331 C   0  0  0  0  0  0  0  0  0  0  0  0
    3.9467    1.9852   -0.6769 O   0  0  0  0  0  0  0  0  0  0  0  0
   -7.0981   -1.4728    0.7501 C   0  0  0  0  0  0  0  0  0  0  0  0
    7.0986    1.4732    0.7496 C   0  0  0  0  0  0  0  0  0  0  0  0
   -8.1049   -0.3546    0.8473 C   0  0  0  0  0  0  0  0  0  0  0  0
    8.1059    0.3554    0.8465 C   0  0  0  0  0  0  0  0  0  0  0  0
   -9.4416   -0.5664    0.4958 C   0  0  0  0  0  0  0  0  0  0  0  0
  -10.3719    0.4710    0.5568 C   0  0  0  0  0  0  0  0  0  0  0  0
   -9.9739    1.7397    0.9725 C   0  0  0  0  0  0  0  0  0  0  0  0
   -8.6421    1.9631    1.3237 C   0  0  0  0  0  0  0  0  0  0  0  0
   -7.7155    0.9256    1.2601 C   0  0  0  0  0  0  0  0  0  0  0  0
    9.4425    0.5679    0.4950 C   0  0  0  0  0  0  0  0  0  0  0  0
   10.3733   -0.4690    0.5558 C   0  0  0  0  0  0  0  0  0  0  0  0
    9.9760   -1.7379    0.9714 C   0  0  0  0  0  0  0  0  0  0  0  0
    8.6443   -1.9621    1.3227 C   0  0  0  0  0  0  0  0  0  0  0  0
    7.7172   -0.9250    1.2592 C   0  0  0  0  0  0  0  0  0  0  0  0
   -4.1014    2.0124   -0.5577 H   0  0  0  0  0  0  0  0  0  0  0  0
    0.2343    2.3126   -0.5691 H   0  0  0  0  0  0  0  0  0  0  0  0
   -2.0215    3.4651   -0.5598 H   0  0  0  0  0  0  0  0  0  0  0  0
    4.1005   -2.0131   -0.5543 H   0  0  0  0  0  0  0  0  0  0  0  0
    2.0206   -3.4658   -0.5560 H   0  0  0  0  0  0  0  0  0  0  0  0
   -0.2353   -2.3133   -0.5671 H   0  0  0  0  0  0  0  0  0  0  0  0
   -5.2826   -3.2683    0.2339 H   0  0  0  0  0  0  0  0  0  0  0  0
   -5.3846   -3.1780   -1.5508 H   0  0  0  0  0  0  0  0  0  0  0  0
   -6.8790   -1.3153   -1.3818 H   0  0  0  0  0  0  0  0  0  0  0  0
    6.8772    1.3136   -1.3819 H   0  0  0  0  0  0  0  0  0  0  0  0
    5.2809    3.2668    0.2349 H   0  0  0  0  0  0  0  0  0  0  0  0
    5.3845    3.1779   -1.5497 H   0  0  0  0  0  0  0  0  0  0  0  0
   -7.6238   -2.4406    0.7404 H   0  0  0  0  0  0  0  0  0  0  0  0
   -6.4340   -1.4699    1.6297 H   0  0  0  0  0  0  0  0  0  0  0  0
    7.6240    2.4412    0.7386 H   0  0  0  0  0  0  0  0  0  0  0  0
    6.4355    1.4707    1.6299 H   0  0  0  0  0  0  0  0  0  0  0  0
   -9.7611   -1.5613    0.1752 H   0  0  0  0  0  0  0  0  0  0  0  0
  -11.4119    0.2849    0.2832 H   0  0  0  0  0  0  0  0  0  0  0  0
  -10.6993    2.5529    1.0262 H   0  0  0  0  0  0  0  0  0  0  0  0
   -8.3231    2.9543    1.6505 H   0  0  0  0  0  0  0  0  0  0  0  0
   -6.6710    1.1030    1.5213 H   0  0  0  0  0  0  0  0  0  0  0  0
    9.7616    1.5630    0.1744 H   0  0  0  0  0  0  0  0  0  0  0  0
   11.4132   -0.2824    0.2823 H   0  0  0  0  0  0  0  0  0  0  0  0
   10.7018   -2.5508    1.0250 H   0  0  0  0  0  0  0  0  0  0  0  0
    8.3258   -2.9535    1.6494 H   0  0  0  0  0  0  0  0  0  0  0  0
    6.6727   -1.1029    1.5205 H   0  0  0  0  0  0  0  0  0  0  0  0
  1  2  2  0  0  0  0
  1  6  1  0  0  0  0
  1 37  1  0  0  0  0
  2  3  1  0  0  0  0
  2 13  1  0  0  0  0
  3  4  2  0  0  0  0
  4  5  1  0  0  0  0
  4  7  1  0  0  0  0
  5  6  2  0  0  0  0
  5 38  1  0  0  0  0
  6 39  1  0  0  0  0
  7  8  2  0  0  0  0
  7 12  1  0  0  0  0
  8  9  1  0  0  0  0
  9 10  2  0  0  0  0
  9 14  1  0  0  0  0
 10 11  1  0  0  0  0
 10 40  1  0  0  0  0
 11 12  2  0  0  0  0
 11 41  1  0  0  0  0
 12 42  1  0  0  0  0
 13 15  1  0  0  0  0
 13 18  2  0  0  0  0
 14 19  2  0  0  0  0
 14 22  1  0  0  0  0
 15 16  1  0  0  0  0
 16 17  1  0  0  0  0
 16 43  1  0  0  0  0
 16 44  1  0  0  0  0
 17 18  1  0  0  0  0
 17 23  1  0  0  0  0
 17 45  1  6  0  0  0
 19 20  1  0  0  0  0
 20 21  1  0  0  0  0
 20 24  1  0  0  0  0
 20 46  1  6  0  0  0
 21 22  1  0  0  0  0
 21 47  1  0  0  0  0
 21 48  1  0  0  0  0
 23 25  1  0  0  0  0
 23 49  1  0  0  0  0
 23 50  1  0  0  0  0
 24 26  1  0  0  0  0
 24 51  1  0  0  0  0
 24 52  1  0  0  0  0
 25 27  2  0  0  0  0
 25 31  1  0  0  0  0
 26 32  2  0  0  0  0
 26 36  1  0  0  0  0
 27 28  1  0  0  0  0
 27 53  1  0  0  0  0
 28 29  2  0  0  0  0
 28 54  1  0  0  0  0
 29 30  1  0  0  0  0
 29 55  1  0  0  0  0
 30 31  2  0  0  0  0
 30 56  1  0  0  0  0
 31 57  1  0  0  0  0
 32 33  1  0  0  0  0
 32 58  1  0  0  0  0
 33 34  2  0  0  0  0
 33 59  1  0  0  0  0
 34 35  1  0  0  0  0
 34 60  1  0  0  0  0
 35 36  2  0  0  0  0
 35 61  1  0  0  0  0
 36 62  1  0  0  0  0
M  END
$$$$
