Title Card Required
 OpenBabel03192317533D

 57 61  0  0  1  0  0  0  0  0999 V2000
    3.4334   -2.2982   -0.5580 C   0  0  0  0  0  0  0  0  0  0  0  0
    4.6274   -2.7590   -0.0098 C   0  0  0  0  0  0  0  0  0  0  0  0
    5.5534   -1.8556    0.5155 C   0  0  0  0  0  0  0  0  0  0  0  0
    5.2780   -0.4905    0.4810 C   0  0  0  0  0  0  0  0  0  0  0  0
    4.0816   -0.0287   -0.0704 C   0  0  0  0  0  0  0  0  0  0  0  0
    3.1406   -0.9267   -0.5840 C   0  0  0  0  0  0  0  0  0  0  0  0
    0.5012   -1.8835    0.7455 C   0  0  0  0  0  0  0  0  0  0  0  0
   -0.5250   -2.6087    1.3504 C   0  0  0  0  0  0  0  0  0  0  0  0
   -1.7303   -2.8122    0.6772 C   0  0  0  0  0  0  0  0  0  0  0  0
   -1.9069   -2.2897   -0.6033 C   0  0  0  0  0  0  0  0  0  0  0  0
   -0.8753   -1.5734   -1.2085 C   0  0  0  0  0  0  0  0  0  0  0  0
    0.3387   -1.3565   -0.5433 C   0  0  0  0  0  0  0  0  0  0  0  0
    1.6113   -0.3372   -1.4331 P   0  0  0  0  0  0  0  0  0  0  0  0
    1.0578    2.3268   -1.6711 C   0  0  0  0  0  0  0  0  0  0  0  0
    1.6292    3.6555   -1.1888 C   0  0  0  0  0  0  0  0  0  0  0  0
    1.1964    3.9309    0.2497 C   0  0  0  0  0  0  0  0  0  0  0  0
    1.6499    2.7880    1.1532 C   0  0  0  0  0  0  0  0  0  0  0  0
    1.1455    1.4268    0.6401 C   0  0  2  0  0  0  0  0  0  0  0  0
    1.4425    1.2385   -0.7681 N   0  0  0  0  0  0  0  0  0  0  0  0
   -4.4823   -0.3146    0.8983 C   0  0  0  0  0  0  0  0  0  0  0  0
   -5.4351   -1.0370    0.1797 C   0  0  0  0  0  0  0  0  0  0  0  0
   -5.4789   -0.9461   -1.2105 C   0  0  0  0  0  0  0  0  0  0  0  0
   -4.5668   -0.1249   -1.8746 C   0  0  0  0  0  0  0  0  0  0  0  0
   -3.6125    0.5919   -1.1556 C   0  0  0  0  0  0  0  0  0  0  0  0
   -3.5578    0.4992    0.2385 C   0  0  0  0  0  0  0  0  0  0  0  0
   -1.9774    0.5848    2.2852 C   0  0  0  0  0  0  0  0  0  0  0  0
   -2.5194    1.2832    1.0136 C   0  0  1  0  0  0  0  0  0  0  0  0
   -1.3129    1.5543    0.2285 N   0  0  0  0  0  0  0  0  0  0  0  0
   -0.3220    1.2723    0.9664 C   0  0  0  0  0  0  0  0  0  0  0  0
   -0.5705    0.8207    2.2179 O   0  0  0  0  0  0  0  0  0  0  0  0
    2.7123   -3.0146   -0.9610 H   0  0  0  0  0  0  0  0  0  0  0  0
    4.8372   -3.8299    0.0080 H   0  0  0  0  0  0  0  0  0  0  0  0
    6.4885   -2.2176    0.9458 H   0  0  0  0  0  0  0  0  0  0  0  0
    5.9992    0.2230    0.8839 H   0  0  0  0  0  0  0  0  0  0  0  0
    3.8682    1.0417   -0.1109 H   0  0  0  0  0  0  0  0  0  0  0  0
    1.4416   -1.7350    1.2817 H   0  0  0  0  0  0  0  0  0  0  0  0
   -0.3827   -3.0132    2.3543 H   0  0  0  0  0  0  0  0  0  0  0  0
   -2.5369   -3.3743    1.1521 H   0  0  0  0  0  0  0  0  0  0  0  0
   -2.8566   -2.4271   -1.1248 H   0  0  0  0  0  0  0  0  0  0  0  0
   -1.0166   -1.1640   -2.2124 H   0  0  0  0  0  0  0  0  0  0  0  0
   -0.0405    2.4063   -1.7449 H   0  0  0  0  0  0  0  0  0  0  0  0
    1.4470    2.0816   -2.6695 H   0  0  0  0  0  0  0  0  0  0  0  0
    1.2944    4.4612   -1.8592 H   0  0  0  0  0  0  0  0  0  0  0  0
    2.7307    3.6171   -1.2417 H   0  0  0  0  0  0  0  0  0  0  0  0
    1.6107    4.8840    0.6107 H   0  0  0  0  0  0  0  0  0  0  0  0
    0.0978    4.0183    0.2870 H   0  0  0  0  0  0  0  0  0  0  0  0
    2.7507    2.7498    1.1774 H   0  0  0  0  0  0  0  0  0  0  0  0
    1.3029    2.9259    2.1884 H   0  0  0  0  0  0  0  0  0  0  0  0
    1.6622    0.6414    1.2132 H   0  0  0  0  0  0  0  0  0  0  0  0
   -4.4604   -0.3972    1.9879 H   0  0  0  0  0  0  0  0  0  0  0  0
   -6.1467   -1.6720    0.7101 H   0  0  0  0  0  0  0  0  0  0  0  0
   -6.2230   -1.5108   -1.7743 H   0  0  0  0  0  0  0  0  0  0  0  0
   -4.5947   -0.0476   -2.9630 H   0  0  0  0  0  0  0  0  0  0  0  0
   -2.8802    1.2170   -1.6676 H   0  0  0  0  0  0  0  0  0  0  0  0
   -2.3645    0.9980    3.2248 H   0  0  0  0  0  0  0  0  0  0  0  0
   -2.1439   -0.5038    2.2566 H   0  0  0  0  0  0  0  0  0  0  0  0
   -2.9696    2.2580    1.2777 H   0  0  0  0  0  0  0  0  0  0  0  0
  1  2  2  0  0  0  0
  1  6  1  0  0  0  0
  1 31  1  0  0  0  0
  2  3  1  0  0  0  0
  2 32  1  0  0  0  0
  3  4  2  0  0  0  0
  3 33  1  0  0  0  0
  4  5  1  0  0  0  0
  4 34  1  0  0  0  0
  5  6  2  0  0  0  0
  5 35  1  0  0  0  0
  6 13  1  0  0  0  0
  7  8  2  0  0  0  0
  7 12  1  0  0  0  0
  7 36  1  0  0  0  0
  8  9  1  0  0  0  0
  8 37  1  0  0  0  0
  9 10  2  0  0  0  0
  9 38  1  0  0  0  0
 10 11  1  0  0  0  0
 10 39  1  0  0  0  0
 11 12  2  0  0  0  0
 11 40  1  0  0  0  0
 12 13  1  0  0  0  0
 13 19  1  0  0  0  0
 14 15  1  0  0  0  0
 14 19  1  0  0  0  0
 14 41  1  0  0  0  0
 14 42  1  0  0  0  0
 15 16  1  0  0  0  0
 15 43  1  0  0  0  0
 15 44  1  0  0  0  0
 16 17  1  0  0  0  0
 16 45  1  0  0  0  0
 16 46  1  0  0  0  0
 17 18  1  0  0  0  0
 17 47  1  0  0  0  0
 17 48  1  0  0  0  0
 18 19  1  0  0  0  0
 18 29  1  0  0  0  0
 18 49  1  1  0  0  0
 20 21  2  0  0  0  0
 20 25  1  0  0  0  0
 20 50  1  0  0  0  0
 21 22  1  0  0  0  0
 21 51  1  0  0  0  0
 22 23  2  0  0  0  0
 22 52  1  0  0  0  0
 23 24  1  0  0  0  0
 23 53  1  0  0  0  0
 24 25  2  0  0  0  0
 24 54  1  0  0  0  0
 25 27  1  0  0  0  0
 26 27  1  0  0  0  0
 26 30  1  0  0  0  0
 26 55  1  0  0  0  0
 26 56  1  0  0  0  0
 27 28  1  0  0  0  0
 27 57  1  1  0  0  0
 28 29  2  0  0  0  0
 29 30  1  0  0  0  0
M  END
$$$$
