Title Card Required
 OpenBabel03192317523D

 54 57  0  0  1  0  0  0  0  0999 V2000
   -0.0259    1.6292   -0.5227 C   0  0  0  0  0  0  0  0  0  0  0  0
   -0.5414    2.9351   -0.4903 C   0  0  0  0  0  0  0  0  0  0  0  0
    0.1931    4.0268   -0.9527 C   0  0  0  0  0  0  0  0  0  0  0  0
    1.4593    3.8227   -1.4794 C   0  0  0  0  0  0  0  0  0  0  0  0
    1.9833    2.5339   -1.5339 C   0  0  0  0  0  0  0  0  0  0  0  0
    1.2741    1.4282   -1.0472 C   0  0  0  0  0  0  0  0  0  0  0  0
    2.2916   -0.1322   -1.2006 P   0  0  0  0  0  0  0  0  0  0  0  0
    2.8814   -0.3683    0.5380 C   0  0  0  0  0  0  0  0  0  0  0  0
    2.3691   -1.2665    1.4813 C   0  0  0  0  0  0  0  0  0  0  0  0
    2.9398   -1.3614    2.7494 C   0  0  0  0  0  0  0  0  0  0  0  0
    4.0191   -0.5523    3.1014 C   0  0  0  0  0  0  0  0  0  0  0  0
    4.5375    0.3468    2.1710 C   0  0  0  0  0  0  0  0  0  0  0  0
    3.9809    0.4247    0.8961 C   0  0  0  0  0  0  0  0  0  0  0  0
    1.1216   -1.5005   -1.5349 C   0  0  0  0  0  0  0  0  0  0  0  0
   -0.0291   -1.2909   -2.3068 C   0  0  0  0  0  0  0  0  0  0  0  0
   -0.8531   -2.3590   -2.6611 C   0  0  0  0  0  0  0  0  0  0  0  0
   -0.5267   -3.6584   -2.2753 C   0  0  0  0  0  0  0  0  0  0  0  0
    0.6436   -3.8846   -1.5502 C   0  0  0  0  0  0  0  0  0  0  0  0
    1.4650   -2.8172   -1.1902 C   0  0  0  0  0  0  0  0  0  0  0  0
   -2.1108    3.2906    0.1708 Cl  0  0  0  0  0  0  0  0  0  0  0  0
   -3.6930   -0.6549    1.1616 C   0  0  0  0  0  0  0  0  0  0  0  0
   -1.2169   -1.4654    0.9109 C   0  0  0  0  0  0  0  0  0  0  0  0
   -2.5009   -0.9500    0.2191 C   0  0  2  0  0  0  0  0  0  0  0  0
   -2.0507    0.2597   -0.4711 N   0  0  0  0  0  0  0  0  0  0  0  0
   -0.8748    0.4970   -0.0685 C   0  0  0  0  0  0  0  0  0  0  0  0
   -0.3117   -0.3597    0.8082 O   0  0  0  0  0  0  0  0  0  0  0  0
   -3.2758    0.2913    2.2912 C   0  0  0  0  0  0  0  0  0  0  0  0
   -4.8064   -0.0003    0.3384 C   0  0  0  0  0  0  0  0  0  0  0  0
   -4.1951   -1.9789    1.7445 C   0  0  0  0  0  0  0  0  0  0  0  0
   -0.2471    5.0218   -0.8936 H   0  0  0  0  0  0  0  0  0  0  0  0
    2.0368    4.6679   -1.8561 H   0  0  0  0  0  0  0  0  0  0  0  0
    2.9688    2.3718   -1.9746 H   0  0  0  0  0  0  0  0  0  0  0  0
    1.5147   -1.8932    1.2299 H   0  0  0  0  0  0  0  0  0  0  0  0
    2.5299   -2.0695    3.4717 H   0  0  0  0  0  0  0  0  0  0  0  0
    4.4590   -0.6277    4.0972 H   0  0  0  0  0  0  0  0  0  0  0  0
    5.3873    0.9793    2.4321 H   0  0  0  0  0  0  0  0  0  0  0  0
    4.4091    1.1138    0.1629 H   0  0  0  0  0  0  0  0  0  0  0  0
   -0.3026   -0.2832   -2.6252 H   0  0  0  0  0  0  0  0  0  0  0  0
   -1.7555   -2.1667   -3.2442 H   0  0  0  0  0  0  0  0  0  0  0  0
   -1.1714   -4.4938   -2.5523 H   0  0  0  0  0  0  0  0  0  0  0  0
    0.9236   -4.9000   -1.2646 H   0  0  0  0  0  0  0  0  0  0  0  0
    2.3847   -3.0136   -0.6348 H   0  0  0  0  0  0  0  0  0  0  0  0
   -1.3425   -1.7131    1.9730 H   0  0  0  0  0  0  0  0  0  0  0  0
   -0.7745   -2.3251    0.3822 H   0  0  0  0  0  0  0  0  0  0  0  0
   -2.8481   -1.6742   -0.5366 H   0  0  0  0  0  0  0  0  0  0  0  0
   -2.8939    1.2403    1.8881 H   0  0  0  0  0  0  0  0  0  0  0  0
   -4.1428    0.5182    2.9302 H   0  0  0  0  0  0  0  0  0  0  0  0
   -2.4982   -0.1479    2.9348 H   0  0  0  0  0  0  0  0  0  0  0  0
   -5.1124   -0.6508   -0.4960 H   0  0  0  0  0  0  0  0  0  0  0  0
   -5.6896    0.1863    0.9683 H   0  0  0  0  0  0  0  0  0  0  0  0
   -4.4595    0.9524   -0.0839 H   0  0  0  0  0  0  0  0  0  0  0  0
   -4.5148   -2.6660    0.9456 H   0  0  0  0  0  0  0  0  0  0  0  0
   -3.4195   -2.4848    2.3402 H   0  0  0  0  0  0  0  0  0  0  0  0
   -5.0573   -1.8027    2.4049 H   0  0  0  0  0  0  0  0  0  0  0  0
  1  2  2  0  0  0  0
  1  6  1  0  0  0  0
  1 25  1  0  0  0  0
  2  3  1  0  0  0  0
  2 20  1  0  0  0  0
  3  4  2  0  0  0  0
  3 30  1  0  0  0  0
  4  5  1  0  0  0  0
  4 31  1  0  0  0  0
  5  6  2  0  0  0  0
  5 32  1  0  0  0  0
  6  7  1  0  0  0  0
  7  8  1  0  0  0  0
  7 14  1  0  0  0  0
  8  9  2  0  0  0  0
  8 13  1  0  0  0  0
  9 10  1  0  0  0  0
  9 33  1  0  0  0  0
 10 11  2  0  0  0  0
 10 34  1  0  0  0  0
 11 12  1  0  0  0  0
 11 35  1  0  0  0  0
 12 13  2  0  0  0  0
 12 36  1  0  0  0  0
 13 37  1  0  0  0  0
 14 15  2  0  0  0  0
 14 19  1  0  0  0  0
 15 16  1  0  0  0  0
 15 38  1  0  0  0  0
 16 17  2  0  0  0  0
 16 39  1  0  0  0  0
 17 18  1  0  0  0  0
 17 40  1  0  0  0  0
 18 19  2  0  0  0  0
 18 41  1  0  0  0  0
 19 42  1  0  0  0  0
 21 23  1  0  0  0  0
 21 27  1  0  0  0  0
 21 28  1  0  0  0  0
 21 29  1  0  0  0  0
 22 23  1  0  0  0  0
 22 26  1  0  0  0  0
 22 43  1  0  0  0  0
 22 44  1  0  0  0  0
 23 24  1  0  0  0  0
 23 45  1  6  0  0  0
 24 25  2  0  0  0  0
 25 26  1  0  0  0  0
 27 46  1  0  0  0  0
 27 47  1  0  0  0  0
 27 48  1  0  0  0  0
 28 49  1  0  0  0  0
 28 50  1  0  0  0  0
 28 51  1  0  0  0  0
 29 52  1  0  0  0  0
 29 53  1  0  0  0  0
 29 54  1  0  0  0  0
M  END
$$$$
