Title Card Required
 OpenBabel03192317563D

 28 29  0  0  1  0  0  0  0  0999 V2000
   -1.8484   -1.6990    0.1102 O   0  0  0  0  0  0  0  0  0  0  0  0
   -1.3892   -0.4399    0.2132 C   0  0  0  0  0  0  0  0  0  0  0  0
   -2.2237    0.5007    0.3876 N   0  0  0  0  0  0  0  0  0  0  0  0
   -3.5485   -0.1163    0.4518 C   0  0  2  0  0  0  0  0  0  0  0  0
   -3.2734   -1.5977    0.0947 C   0  0  0  0  0  0  0  0  0  0  0  0
   -4.5648    0.5675   -0.4654 C   0  0  0  0  0  0  0  0  0  0  0  0
   -5.9225   -0.1242   -0.3628 C   0  0  0  0  0  0  0  0  0  0  0  0
   -4.6746    2.0540   -0.1428 C   0  0  0  0  0  0  0  0  0  0  0  0
    0.0806   -0.2516    0.1325 C   0  0  0  0  0  0  0  0  0  0  0  0
    0.6048    1.0373    0.2833 C   0  0  0  0  0  0  0  0  0  0  0  0
    1.9815    1.2052    0.2112 C   0  0  0  0  0  0  0  0  0  0  0  0
    2.7660    0.0752   -0.0069 C   0  0  0  0  0  0  0  0  0  0  0  0
    2.1509   -1.1722   -0.1464 C   0  0  0  0  0  0  0  0  0  0  0  0
    0.8362   -1.3267   -0.0777 N   0  0  0  0  0  0  0  0  0  0  0  0
    4.6424    0.2083   -0.1088 Br  0  0  0  0  0  0  0  0  0  0  0  0
   -3.9180   -0.0199    1.4902 H   0  0  0  0  0  0  0  0  0  0  0  0
   -3.6877   -2.3204    0.8084 H   0  0  0  0  0  0  0  0  0  0  0  0
   -3.6283   -1.8488   -0.9186 H   0  0  0  0  0  0  0  0  0  0  0  0
   -4.1841    0.4581   -1.4969 H   0  0  0  0  0  0  0  0  0  0  0  0
   -6.3163   -0.0453    0.6634 H   0  0  0  0  0  0  0  0  0  0  0  0
   -6.6524    0.3446   -1.0379 H   0  0  0  0  0  0  0  0  0  0  0  0
   -5.8674   -1.1921   -0.6229 H   0  0  0  0  0  0  0  0  0  0  0  0
   -3.6944    2.5412   -0.2176 H   0  0  0  0  0  0  0  0  0  0  0  0
   -5.3750    2.5523   -0.8286 H   0  0  0  0  0  0  0  0  0  0  0  0
   -5.0483    2.1970    0.8840 H   0  0  0  0  0  0  0  0  0  0  0  0
   -0.0759    1.8709    0.4548 H   0  0  0  0  0  0  0  0  0  0  0  0
    2.4416    2.1875    0.3239 H   0  0  0  0  0  0  0  0  0  0  0  0
    2.7576   -2.0657   -0.3187 H   0  0  0  0  0  0  0  0  0  0  0  0
  1  2  1  0  0  0  0
  1  5  1  0  0  0  0
  2  3  2  0  0  0  0
  2  9  1  0  0  0  0
  3  4  1  0  0  0  0
  4  5  1  0  0  0  0
  4  6  1  0  0  0  0
  4 16  1  1  0  0  0
  5 17  1  0  0  0  0
  5 18  1  0  0  0  0
  6  7  1  0  0  0  0
  6  8  1  0  0  0  0
  6 19  1  0  0  0  0
  7 20  1  0  0  0  0
  7 21  1  0  0  0  0
  7 22  1  0  0  0  0
  8 23  1  0  0  0  0
  8 24  1  0  0  0  0
  8 25  1  0  0  0  0
  9 10  2  0  0  0  0
  9 14  1  0  0  0  0
 10 11  1  0  0  0  0
 10 26  1  0  0  0  0
 11 12  2  0  0  0  0
 11 27  1  0  0  0  0
 12 13  1  0  0  0  0
 12 15  1  0  0  0  0
 13 14  2  0  0  0  0
 13 28  1  0  0  0  0
M  END
$$$$
