Title Card Required
 OpenBabel03192317433D

 53 56  0  0  1  0  0  0  0  0999 V2000
    1.5132   -0.1419   -1.5148 O   0  0  0  0  0  0  0  0  0  0  0  0
    0.9160   -1.0188   -0.6707 C   0  0  0  0  0  0  0  0  0  0  0  0
    1.5552   -2.0563   -0.3336 N   0  0  0  0  0  0  0  0  0  0  0  0
    2.8877   -1.9438   -0.9353 C   0  0  1  0  0  0  0  0  0  0  0  0
    2.7511   -0.7434   -1.9006 C   0  0  0  0  0  0  0  0  0  0  0  0
   -0.4640   -0.6144   -0.2361 C   0  0  0  0  0  0  0  0  0  0  0  0
    0.3900    2.0842    2.0384 C   0  0  0  0  0  0  0  0  0  0  0  0
   -0.3832    2.8701    0.9527 C   0  0  2  0  0  0  0  0  0  0  0  0
   -0.8872    1.8231    0.0594 N   0  0  0  0  0  0  0  0  0  0  0  0
   -0.3383    0.7421    0.4159 C   0  0  0  0  0  0  0  0  0  0  0  0
    0.4782    0.7638    1.4988 O   0  0  0  0  0  0  0  0  0  0  0  0
    3.9559   -1.7513    0.1562 C   0  0  0  0  0  0  0  0  0  0  0  0
    0.4780    3.8793    0.1739 C   0  0  0  0  0  0  0  0  0  0  0  0
    3.6759   -0.5126    1.0063 C   0  0  0  0  0  0  0  0  0  0  0  0
    4.0618   -3.0018    1.0249 C   0  0  0  0  0  0  0  0  0  0  0  0
    1.6584    3.1991   -0.5185 C   0  0  0  0  0  0  0  0  0  0  0  0
   -0.3790    4.6475   -0.8287 C   0  0  0  0  0  0  0  0  0  0  0  0
   -1.0920   -1.6178    0.7623 C   0  0  0  0  0  0  0  0  0  0  0  0
   -2.5682   -1.4966    0.4769 C   0  0  0  0  0  0  0  0  0  0  0  0
   -2.7796   -0.8865   -0.7646 C   0  0  0  0  0  0  0  0  0  0  0  0
   -1.4629   -0.5413   -1.4174 C   0  0  0  0  0  0  0  0  0  0  0  0
   -3.6460   -1.9172    1.2504 C   0  0  0  0  0  0  0  0  0  0  0  0
   -4.9426   -1.7206    0.7697 C   0  0  0  0  0  0  0  0  0  0  0  0
   -5.1533   -1.1124   -0.4690 C   0  0  0  0  0  0  0  0  0  0  0  0
   -4.0708   -0.6920   -1.2453 C   0  0  0  0  0  0  0  0  0  0  0  0
    3.1181   -2.8691   -1.4853 H   0  0  0  0  0  0  0  0  0  0  0  0
    3.5545   -0.0006   -1.7997 H   0  0  0  0  0  0  0  0  0  0  0  0
    2.6761   -1.0504   -2.9542 H   0  0  0  0  0  0  0  0  0  0  0  0
    1.4049    2.4646    2.2193 H   0  0  0  0  0  0  0  0  0  0  0  0
   -0.1515    2.0345    2.9942 H   0  0  0  0  0  0  0  0  0  0  0  0
   -1.2365    3.4105    1.3907 H   0  0  0  0  0  0  0  0  0  0  0  0
    4.9144   -1.6081   -0.3747 H   0  0  0  0  0  0  0  0  0  0  0  0
    0.8685    4.5921    0.9227 H   0  0  0  0  0  0  0  0  0  0  0  0
    2.7301   -0.6271    1.5559 H   0  0  0  0  0  0  0  0  0  0  0  0
    4.4843   -0.3550    1.7348 H   0  0  0  0  0  0  0  0  0  0  0  0
    3.5922    0.3994    0.3951 H   0  0  0  0  0  0  0  0  0  0  0  0
    4.3181   -3.8866    0.4235 H   0  0  0  0  0  0  0  0  0  0  0  0
    4.8340   -2.8788    1.7980 H   0  0  0  0  0  0  0  0  0  0  0  0
    3.0991   -3.1948    1.5194 H   0  0  0  0  0  0  0  0  0  0  0  0
    1.3022    2.4821   -1.2730 H   0  0  0  0  0  0  0  0  0  0  0  0
    2.2926    3.9450   -1.0190 H   0  0  0  0  0  0  0  0  0  0  0  0
    2.2914    2.6433    0.1906 H   0  0  0  0  0  0  0  0  0  0  0  0
   -1.2053    5.1737   -0.3280 H   0  0  0  0  0  0  0  0  0  0  0  0
    0.2213    5.3918   -1.3715 H   0  0  0  0  0  0  0  0  0  0  0  0
   -0.8149    3.9502   -1.5583 H   0  0  0  0  0  0  0  0  0  0  0  0
   -0.7196   -2.6284    0.5343 H   0  0  0  0  0  0  0  0  0  0  0  0
   -0.8115   -1.3928    1.8001 H   0  0  0  0  0  0  0  0  0  0  0  0
   -1.4516    0.4476   -1.8913 H   0  0  0  0  0  0  0  0  0  0  0  0
   -1.1995   -1.2992   -2.1738 H   0  0  0  0  0  0  0  0  0  0  0  0
   -3.4825   -2.3897    2.2212 H   0  0  0  0  0  0  0  0  0  0  0  0
   -5.7974   -2.0387    1.3689 H   0  0  0  0  0  0  0  0  0  0  0  0
   -6.1714   -0.9592   -0.8307 H   0  0  0  0  0  0  0  0  0  0  0  0
   -4.2366   -0.2102   -2.2109 H   0  0  0  0  0  0  0  0  0  0  0  0
  1  2  1  0  0  0  0
  1  5  1  0  0  0  0
  2  3  2  0  0  0  0
  2  6  1  0  0  0  0
  3  4  1  0  0  0  0
  4  5  1  0  0  0  0
  4 12  1  0  0  0  0
  4 26  1  6  0  0  0
  5 27  1  0  0  0  0
  5 28  1  0  0  0  0
  6 10  1  0  0  0  0
  6 18  1  0  0  0  0
  6 21  1  0  0  0  0
  7  8  1  0  0  0  0
  7 11  1  0  0  0  0
  7 29  1  0  0  0  0
  7 30  1  0  0  0  0
  8  9  1  0  0  0  0
  8 13  1  0  0  0  0
  8 31  1  1  0  0  0
  9 10  2  0  0  0  0
 10 11  1  0  0  0  0
 12 14  1  0  0  0  0
 12 15  1  0  0  0  0
 12 32  1  0  0  0  0
 13 16  1  0  0  0  0
 13 17  1  0  0  0  0
 13 33  1  0  0  0  0
 14 34  1  0  0  0  0
 14 35  1  0  0  0  0
 14 36  1  0  0  0  0
 15 37  1  0  0  0  0
 15 38  1  0  0  0  0
 15 39  1  0  0  0  0
 16 40  1  0  0  0  0
 16 41  1  0  0  0  0
 16 42  1  0  0  0  0
 17 43  1  0  0  0  0
 17 44  1  0  0  0  0
 17 45  1  0  0  0  0
 18 19  1  0  0  0  0
 18 46  1  0  0  0  0
 18 47  1  0  0  0  0
 19 20  2  0  0  0  0
 19 22  1  0  0  0  0
 20 21  1  0  0  0  0
 20 25  1  0  0  0  0
 21 48  1  0  0  0  0
 21 49  1  0  0  0  0
 22 23  2  0  0  0  0
 22 50  1  0  0  0  0
 23 24  1  0  0  0  0
 23 51  1  0  0  0  0
 24 25  2  0  0  0  0
 24 52  1  0  0  0  0
 25 53  1  0  0  0  0
M  END
$$$$
