Title Card Required
 OpenBabel03192317413D

 49 53  0  0  1  0  0  0  0  0999 V2000
    0.5387    0.1682    0.5416 O   0  0  0  0  0  0  0  0  0  0  0  0
    0.4633   -0.6157   -0.5550 C   0  0  0  0  0  0  0  0  0  0  0  0
    1.5227   -0.8252   -1.2211 N   0  0  0  0  0  0  0  0  0  0  0  0
    2.5989   -0.1167   -0.5294 C   0  0  1  0  0  0  0  0  0  0  0  0
    1.8302    0.7713    0.5083 C   0  0  1  0  0  0  0  0  0  0  0  0
   -0.8726   -1.1680   -0.8906 C   0  0  0  0  0  0  0  0  0  0  0  0
   -0.9685   -2.1672   -1.8634 C   0  0  0  0  0  0  0  0  0  0  0  0
   -2.2370   -2.6557   -2.1540 C   0  0  0  0  0  0  0  0  0  0  0  0
   -3.3373   -2.1315   -1.4830 C   0  0  0  0  0  0  0  0  0  0  0  0
   -3.1422   -1.1131   -0.5361 C   0  0  0  0  0  0  0  0  0  0  0  0
   -1.9192   -0.6582   -0.2533 N   0  0  0  0  0  0  0  0  0  0  0  0
   -4.2729   -0.4989    0.2151 C   0  0  0  0  0  0  0  0  0  0  0  0
   -4.0024    0.2282    1.3826 C   0  0  0  0  0  0  0  0  0  0  0  0
   -5.0383    0.8040    2.1117 C   0  0  0  0  0  0  0  0  0  0  0  0
   -6.3592    0.6709    1.6831 C   0  0  0  0  0  0  0  0  0  0  0  0
   -6.6366   -0.0397    0.5162 C   0  0  0  0  0  0  0  0  0  0  0  0
   -5.6012   -0.6205   -0.2124 C   0  0  0  0  0  0  0  0  0  0  0  0
    1.7269    2.2206    0.0910 C   0  0  0  0  0  0  0  0  0  0  0  0
    2.8764    3.0185    0.1141 C   0  0  0  0  0  0  0  0  0  0  0  0
    2.8197    4.3469   -0.2976 C   0  0  0  0  0  0  0  0  0  0  0  0
    1.6108    4.8909   -0.7353 C   0  0  0  0  0  0  0  0  0  0  0  0
    0.4641    4.1002   -0.7540 C   0  0  0  0  0  0  0  0  0  0  0  0
    0.5177    2.7687   -0.3396 C   0  0  0  0  0  0  0  0  0  0  0  0
    3.5777   -1.0782    0.1110 C   0  0  0  0  0  0  0  0  0  0  0  0
    4.9488   -0.9601   -0.1207 C   0  0  0  0  0  0  0  0  0  0  0  0
    5.8508   -1.8256    0.4998 C   0  0  0  0  0  0  0  0  0  0  0  0
    5.3857   -2.8184    1.3588 C   0  0  0  0  0  0  0  0  0  0  0  0
    4.0154   -2.9419    1.5966 C   0  0  0  0  0  0  0  0  0  0  0  0
    3.1179   -2.0780    0.9757 C   0  0  0  0  0  0  0  0  0  0  0  0
    3.1414    0.5171   -1.2458 H   0  0  0  0  0  0  0  0  0  0  0  0
    2.2708    0.6912    1.5122 H   0  0  0  0  0  0  0  0  0  0  0  0
   -0.0635   -2.5279   -2.3509 H   0  0  0  0  0  0  0  0  0  0  0  0
   -2.3700   -3.4461   -2.8941 H   0  0  0  0  0  0  0  0  0  0  0  0
   -4.3350   -2.5224   -1.6786 H   0  0  0  0  0  0  0  0  0  0  0  0
   -2.9646    0.3289    1.7009 H   0  0  0  0  0  0  0  0  0  0  0  0
   -4.8126    1.3622    3.0217 H   0  0  0  0  0  0  0  0  0  0  0  0
   -7.1705    1.1257    2.2536 H   0  0  0  0  0  0  0  0  0  0  0  0
   -7.6650   -0.1376    0.1656 H   0  0  0  0  0  0  0  0  0  0  0  0
   -5.8381   -1.1533   -1.1342 H   0  0  0  0  0  0  0  0  0  0  0  0
    3.8234    2.5931    0.4591 H   0  0  0  0  0  0  0  0  0  0  0  0
    3.7206    4.9622   -0.2755 H   0  0  0  0  0  0  0  0  0  0  0  0
    1.5646    5.9320   -1.0584 H   0  0  0  0  0  0  0  0  0  0  0  0
   -0.4843    4.5212   -1.0917 H   0  0  0  0  0  0  0  0  0  0  0  0
   -0.3805    2.1486   -0.3377 H   0  0  0  0  0  0  0  0  0  0  0  0
    5.3144   -0.1857   -0.7992 H   0  0  0  0  0  0  0  0  0  0  0  0
    6.9201   -1.7251    0.3072 H   0  0  0  0  0  0  0  0  0  0  0  0
    6.0889   -3.4980    1.8424 H   0  0  0  0  0  0  0  0  0  0  0  0
    3.6452   -3.7173    2.2692 H   0  0  0  0  0  0  0  0  0  0  0  0
    2.0455   -2.1780    1.1641 H   0  0  0  0  0  0  0  0  0  0  0  0
  1  2  1  0  0  0  0
  1  5  1  0  0  0  0
  2  3  2  0  0  0  0
  2  6  1  0  0  0  0
  3  4  1  0  0  0  0
  4  5  1  0  0  0  0
  4 24  1  0  0  0  0
  4 30  1  6  0  0  0
  5 18  1  0  0  0  0
  5 31  1  1  0  0  0
  6  7  2  0  0  0  0
  6 11  1  0  0  0  0
  7  8  1  0  0  0  0
  7 32  1  0  0  0  0
  8  9  2  0  0  0  0
  8 33  1  0  0  0  0
  9 10  1  0  0  0  0
  9 34  1  0  0  0  0
 10 11  2  0  0  0  0
 10 12  1  0  0  0  0
 12 13  2  0  0  0  0
 12 17  1  0  0  0  0
 13 14  1  0  0  0  0
 13 35  1  0  0  0  0
 14 15  2  0  0  0  0
 14 36  1  0  0  0  0
 15 16  1  0  0  0  0
 15 37  1  0  0  0  0
 16 17  2  0  0  0  0
 16 38  1  0  0  0  0
 17 39  1  0  0  0  0
 18 19  2  0  0  0  0
 18 23  1  0  0  0  0
 19 20  1  0  0  0  0
 19 40  1  0  0  0  0
 20 21  2  0  0  0  0
 20 41  1  0  0  0  0
 21 22  1  0  0  0  0
 21 42  1  0  0  0  0
 22 23  2  0  0  0  0
 22 43  1  0  0  0  0
 23 44  1  0  0  0  0
 24 25  2  0  0  0  0
 24 29  1  0  0  0  0
 25 26  1  0  0  0  0
 25 45  1  0  0  0  0
 26 27  2  0  0  0  0
 26 46  1  0  0  0  0
 27 28  1  0  0  0  0
 27 47  1  0  0  0  0
 28 29  2  0  0  0  0
 28 48  1  0  0  0  0
 29 49  1  0  0  0  0
M  END
$$$$
