Title Card Required
 OpenBabel03192317423D

 41 44  0  0  1  0  0  0  0  0999 V2000
    0.0702   -1.8073   -0.2894 O   0  0  0  0  0  0  0  0  0  0  0  0
    0.3839   -0.4978   -0.2959 C   0  0  0  0  0  0  0  0  0  0  0  0
    1.6081   -0.1668   -0.3584 N   0  0  0  0  0  0  0  0  0  0  0  0
    2.3812   -1.4052   -0.4230 C   0  0  2  0  0  0  0  0  0  0  0  0
    1.3111   -2.5122   -0.2523 C   0  0  0  0  0  0  0  0  0  0  0  0
    3.4793   -1.4625    0.6443 C   0  0  0  0  0  0  0  0  0  0  0  0
    4.5891   -0.4656    0.4227 C   0  0  0  0  0  0  0  0  0  0  0  0
    4.3873    0.8978    0.6726 C   0  0  0  0  0  0  0  0  0  0  0  0
    5.4077    1.8184    0.4482 C   0  0  0  0  0  0  0  0  0  0  0  0
    6.6469    1.3933   -0.0325 C   0  0  0  0  0  0  0  0  0  0  0  0
    6.8577    0.0402   -0.2879 C   0  0  0  0  0  0  0  0  0  0  0  0
    5.8340   -0.8799   -0.0612 C   0  0  0  0  0  0  0  0  0  0  0  0
   -3.0035    0.8077   -0.0806 C   0  0  0  0  0  0  0  0  0  0  0  0
   -2.8418    2.1973   -0.1472 C   0  0  0  0  0  0  0  0  0  0  0  0
   -1.5545    2.7114   -0.2671 C   0  0  0  0  0  0  0  0  0  0  0  0
   -0.4766    1.8338   -0.3180 C   0  0  0  0  0  0  0  0  0  0  0  0
   -0.7470    0.4631   -0.2430 C   0  0  0  0  0  0  0  0  0  0  0  0
   -1.9722   -0.0347   -0.1276 N   0  0  0  0  0  0  0  0  0  0  0  0
   -4.3642    0.2075    0.0463 C   0  0  0  0  0  0  0  0  0  0  0  0
   -4.5135   -1.1833    0.1151 C   0  0  0  0  0  0  0  0  0  0  0  0
   -5.7968   -1.7051    0.2314 C   0  0  0  0  0  0  0  0  0  0  0  0
   -6.8796   -0.8292    0.2753 C   0  0  0  0  0  0  0  0  0  0  0  0
   -6.6224    0.5403    0.2003 C   0  0  0  0  0  0  0  0  0  0  0  0
   -5.4001    1.0480    0.0888 N   0  0  0  0  0  0  0  0  0  0  0  0
    2.8641   -1.4603   -1.4135 H   0  0  0  0  0  0  0  0  0  0  0  0
    1.3167   -3.2629   -1.0527 H   0  0  0  0  0  0  0  0  0  0  0  0
    1.3967   -3.0231    0.7203 H   0  0  0  0  0  0  0  0  0  0  0  0
    3.0045   -1.2984    1.6253 H   0  0  0  0  0  0  0  0  0  0  0  0
    3.8986   -2.4811    0.6521 H   0  0  0  0  0  0  0  0  0  0  0  0
    3.4132    1.2308    1.0342 H   0  0  0  0  0  0  0  0  0  0  0  0
    5.2356    2.8770    0.6505 H   0  0  0  0  0  0  0  0  0  0  0  0
    7.4459    2.1163   -0.2044 H   0  0  0  0  0  0  0  0  0  0  0  0
    7.8237   -0.3040   -0.6612 H   0  0  0  0  0  0  0  0  0  0  0  0
    6.0075   -1.9410   -0.2573 H   0  0  0  0  0  0  0  0  0  0  0  0
   -3.7266    2.8308   -0.1055 H   0  0  0  0  0  0  0  0  0  0  0  0
   -1.3930    3.7889   -0.3228 H   0  0  0  0  0  0  0  0  0  0  0  0
    0.5559    2.1679   -0.4162 H   0  0  0  0  0  0  0  0  0  0  0  0
   -3.6234   -1.8099    0.0759 H   0  0  0  0  0  0  0  0  0  0  0  0
   -5.9513   -2.7840    0.2873 H   0  0  0  0  0  0  0  0  0  0  0  0
   -7.9033   -1.1931    0.3658 H   0  0  0  0  0  0  0  0  0  0  0  0
   -7.4472    1.2588    0.2326 H   0  0  0  0  0  0  0  0  0  0  0  0
  1  2  1  0  0  0  0
  1  5  1  0  0  0  0
  2  3  2  0  0  0  0
  2 17  1  0  0  0  0
  3  4  1  0  0  0  0
  4  5  1  0  0  0  0
  4  6  1  0  0  0  0
  4 25  1  6  0  0  0
  5 26  1  0  0  0  0
  5 27  1  0  0  0  0
  6  7  1  0  0  0  0
  6 28  1  0  0  0  0
  6 29  1  0  0  0  0
  7  8  2  0  0  0  0
  7 12  1  0  0  0  0
  8  9  1  0  0  0  0
  8 30  1  0  0  0  0
  9 10  2  0  0  0  0
  9 31  1  0  0  0  0
 10 11  1  0  0  0  0
 10 32  1  0  0  0  0
 11 12  2  0  0  0  0
 11 33  1  0  0  0  0
 12 34  1  0  0  0  0
 13 14  2  0  0  0  0
 13 18  1  0  0  0  0
 13 19  1  0  0  0  0
 14 15  1  0  0  0  0
 14 35  1  0  0  0  0
 15 16  2  0  0  0  0
 15 36  1  0  0  0  0
 16 17  1  0  0  0  0
 16 37  1  0  0  0  0
 17 18  2  0  0  0  0
 19 20  2  0  0  0  0
 19 24  1  0  0  0  0
 20 21  1  0  0  0  0
 20 38  1  0  0  0  0
 21 22  2  0  0  0  0
 21 39  1  0  0  0  0
 22 23  1  0  0  0  0
 22 40  1  0  0  0  0
 23 24  2  0  0  0  0
 23 41  1  0  0  0  0
M  END
$$$$
