Title Card Required
 OpenBabel03192317503D

 53 58  0  0  1  0  0  0  0  0999 V2000
   -1.4621   -0.5043   -0.9713 O   0  0  0  0  0  0  0  0  0  0  0  0
   -1.6012   -1.2114    0.1697 C   0  0  0  0  0  0  0  0  0  0  0  0
   -2.6962   -1.8161    0.3845 N   0  0  0  0  0  0  0  0  0  0  0  0
   -3.5717   -1.4826   -0.7365 C   0  0  2  0  0  0  0  0  0  0  0  0
   -2.6645   -0.6924   -1.7294 C   0  0  1  0  0  0  0  0  0  0  0  0
   -3.3557    0.6445   -2.0333 C   0  0  0  0  0  0  0  0  0  0  0  0
   -4.4946    0.7145   -1.0425 C   0  0  0  0  0  0  0  0  0  0  0  0
   -5.3615    1.7775   -0.7907 C   0  0  0  0  0  0  0  0  0  0  0  0
   -6.3605    1.6248    0.1707 C   0  0  0  0  0  0  0  0  0  0  0  0
   -6.4927    0.4249    0.8763 C   0  0  0  0  0  0  0  0  0  0  0  0
   -5.6270   -0.6385    0.6258 C   0  0  0  0  0  0  0  0  0  0  0  0
   -4.6373   -0.4840   -0.3417 C   0  0  0  0  0  0  0  0  0  0  0  0
   -0.4417   -1.2079    1.0954 C   0  0  0  0  0  0  0  0  0  0  0  0
   -0.5747   -1.7796    2.3635 C   0  0  0  0  0  0  0  0  0  0  0  0
    0.5324   -1.7443    3.2030 C   0  0  0  0  0  0  0  0  0  0  0  0
    1.7081   -1.1507    2.7500 C   0  0  0  0  0  0  0  0  0  0  0  0
    1.7447   -0.6095    1.4590 C   0  0  0  0  0  0  0  0  0  0  0  0
    0.6813   -0.6484    0.6601 N   0  0  0  0  0  0  0  0  0  0  0  0
    3.0151    0.0245    0.9184 C   0  0  0  0  0  0  0  0  0  0  0  0
    3.5873   -0.7576   -0.2603 C   0  0  0  0  0  0  0  0  0  0  0  0
    2.8658   -0.9402   -1.4466 C   0  0  0  0  0  0  0  0  0  0  0  0
    3.4289   -1.6447   -2.5082 C   0  0  0  0  0  0  0  0  0  0  0  0
    4.7170   -2.1723   -2.4062 C   0  0  0  0  0  0  0  0  0  0  0  0
    5.4410   -1.9925   -1.2307 C   0  0  0  0  0  0  0  0  0  0  0  0
    4.8761   -1.2898   -0.1664 C   0  0  0  0  0  0  0  0  0  0  0  0
    2.8818    1.5089    0.5860 C   0  0  0  0  0  0  0  0  0  0  0  0
    3.9241    2.3649    0.9590 C   0  0  0  0  0  0  0  0  0  0  0  0
    3.8875    3.7221    0.6464 C   0  0  0  0  0  0  0  0  0  0  0  0
    2.7998    4.2462   -0.0490 C   0  0  0  0  0  0  0  0  0  0  0  0
    1.7573    3.4014   -0.4268 C   0  0  0  0  0  0  0  0  0  0  0  0
    1.7942    2.0421   -0.1168 C   0  0  0  0  0  0  0  0  0  0  0  0
   -4.0052   -2.3999   -1.1627 H   0  0  0  0  0  0  0  0  0  0  0  0
   -2.3980   -1.2511   -2.6369 H   0  0  0  0  0  0  0  0  0  0  0  0
   -2.6413    1.4733   -1.9254 H   0  0  0  0  0  0  0  0  0  0  0  0
   -3.7293    0.6648   -3.0686 H   0  0  0  0  0  0  0  0  0  0  0  0
   -5.2582    2.7194   -1.3333 H   0  0  0  0  0  0  0  0  0  0  0  0
   -7.0426    2.4509    0.3777 H   0  0  0  0  0  0  0  0  0  0  0  0
   -7.2743    0.3234    1.6309 H   0  0  0  0  0  0  0  0  0  0  0  0
   -5.7097   -1.5738    1.1824 H   0  0  0  0  0  0  0  0  0  0  0  0
   -1.5264   -2.2245    2.6523 H   0  0  0  0  0  0  0  0  0  0  0  0
    0.4808   -2.1734    4.2049 H   0  0  0  0  0  0  0  0  0  0  0  0
    2.5932   -1.1063    3.3859 H   0  0  0  0  0  0  0  0  0  0  0  0
    3.7592   -0.0444    1.7238 H   0  0  0  0  0  0  0  0  0  0  0  0
    1.8533   -0.5421   -1.5266 H   0  0  0  0  0  0  0  0  0  0  0  0
    2.8559   -1.7828   -3.4267 H   0  0  0  0  0  0  0  0  0  0  0  0
    5.1541   -2.7212   -3.2418 H   0  0  0  0  0  0  0  0  0  0  0  0
    6.4489   -2.4003   -1.1376 H   0  0  0  0  0  0  0  0  0  0  0  0
    5.4478   -1.1517    0.7547 H   0  0  0  0  0  0  0  0  0  0  0  0
    4.7816    1.9591    1.5018 H   0  0  0  0  0  0  0  0  0  0  0  0
    4.7111    4.3708    0.9492 H   0  0  0  0  0  0  0  0  0  0  0  0
    2.7644    5.3088   -0.2947 H   0  0  0  0  0  0  0  0  0  0  0  0
    0.9005    3.8036   -0.9704 H   0  0  0  0  0  0  0  0  0  0  0  0
    0.9682    1.3931   -0.4096 H   0  0  0  0  0  0  0  0  0  0  0  0
  1  2  1  0  0  0  0
  1  5  1  0  0  0  0
  2  3  2  0  0  0  0
  2 13  1  0  0  0  0
  3  4  1  0  0  0  0
  4  5  1  0  0  0  0
  4 12  1  0  0  0  0
  4 32  1  6  0  0  0
  5  6  1  0  0  0  0
  5 33  1  6  0  0  0
  6  7  1  0  0  0  0
  6 34  1  0  0  0  0
  6 35  1  0  0  0  0
  7  8  2  0  0  0  0
  7 12  1  0  0  0  0
  8  9  1  0  0  0  0
  8 36  1  0  0  0  0
  9 10  2  0  0  0  0
  9 37  1  0  0  0  0
 10 11  1  0  0  0  0
 10 38  1  0  0  0  0
 11 12  2  0  0  0  0
 11 39  1  0  0  0  0
 13 14  2  0  0  0  0
 13 18  1  0  0  0  0
 14 15  1  0  0  0  0
 14 40  1  0  0  0  0
 15 16  2  0  0  0  0
 15 41  1  0  0  0  0
 16 17  1  0  0  0  0
 16 42  1  0  0  0  0
 17 18  2  0  0  0  0
 17 19  1  0  0  0  0
 19 20  1  0  0  0  0
 19 26  1  0  0  0  0
 19 43  1  0  0  0  0
 20 21  2  0  0  0  0
 20 25  1  0  0  0  0
 21 22  1  0  0  0  0
 21 44  1  0  0  0  0
 22 23  2  0  0  0  0
 22 45  1  0  0  0  0
 23 24  1  0  0  0  0
 23 46  1  0  0  0  0
 24 25  2  0  0  0  0
 24 47  1  0  0  0  0
 25 48  1  0  0  0  0
 26 27  2  0  0  0  0
 26 31  1  0  0  0  0
 27 28  1  0  0  0  0
 27 49  1  0  0  0  0
 28 29  2  0  0  0  0
 28 50  1  0  0  0  0
 29 30  1  0  0  0  0
 29 51  1  0  0  0  0
 30 31  2  0  0  0  0
 30 52  1  0  0  0  0
 31 53  1  0  0  0  0
M  END
$$$$
