Title Card Required
 OpenBabel03192317493D

 30 33  0  0  1  0  0  0  0  0999 V2000
    1.1644   -1.7313    0.0656 O   0  0  0  0  0  0  0  0  0  0  0  0
    0.6295   -0.6696    0.6944 C   0  0  0  0  0  0  0  0  0  0  0  0
    1.3672    0.0272    1.4589 N   0  0  0  0  0  0  0  0  0  0  0  0
    2.7071   -0.5471    1.3586 C   0  0  1  0  0  0  0  0  0  0  0  0
    2.5181   -1.8504    0.5239 C   0  0  2  0  0  0  0  0  0  0  0  0
    3.5111   -1.8083   -0.6444 C   0  0  0  0  0  0  0  0  0  0  0  0
    4.0445   -0.3948   -0.6313 C   0  0  0  0  0  0  0  0  0  0  0  0
    4.8691    0.2278   -1.5674 C   0  0  0  0  0  0  0  0  0  0  0  0
    5.2577    1.5502   -1.3556 C   0  0  0  0  0  0  0  0  0  0  0  0
    4.8265    2.2460   -0.2220 C   0  0  0  0  0  0  0  0  0  0  0  0
    4.0020    1.6248    0.7151 C   0  0  0  0  0  0  0  0  0  0  0  0
    3.6236    0.3015    0.5030 C   0  0  0  0  0  0  0  0  0  0  0  0
   -0.8047   -0.3872    0.4373 C   0  0  0  0  0  0  0  0  0  0  0  0
   -1.3848    0.7325    1.0440 C   0  0  0  0  0  0  0  0  0  0  0  0
   -2.7270    0.9941    0.8039 C   0  0  0  0  0  0  0  0  0  0  0  0
   -3.4221    0.1247   -0.0336 C   0  0  0  0  0  0  0  0  0  0  0  0
   -2.7561   -0.9677   -0.5961 C   0  0  0  0  0  0  0  0  0  0  0  0
   -1.4743   -1.2141   -0.3616 N   0  0  0  0  0  0  0  0  0  0  0  0
   -5.2444    0.4129   -0.4126 Br  0  0  0  0  0  0  0  0  0  0  0  0
    3.1233   -0.7160    2.3631 H   0  0  0  0  0  0  0  0  0  0  0  0
    2.5866   -2.7765    1.1109 H   0  0  0  0  0  0  0  0  0  0  0  0
    4.3209   -2.5388   -0.4940 H   0  0  0  0  0  0  0  0  0  0  0  0
    3.0024   -2.0684   -1.5836 H   0  0  0  0  0  0  0  0  0  0  0  0
    5.2016   -0.3098   -2.4578 H   0  0  0  0  0  0  0  0  0  0  0  0
    5.9000    2.0485   -2.0835 H   0  0  0  0  0  0  0  0  0  0  0  0
    5.1331    3.2826   -0.0743 H   0  0  0  0  0  0  0  0  0  0  0  0
    3.6473    2.1645    1.5951 H   0  0  0  0  0  0  0  0  0  0  0  0
   -0.7724    1.3665    1.6848 H   0  0  0  0  0  0  0  0  0  0  0  0
   -3.2283    1.8522    1.2526 H   0  0  0  0  0  0  0  0  0  0  0  0
   -3.2919   -1.6563   -1.2560 H   0  0  0  0  0  0  0  0  0  0  0  0
  1  2  1  0  0  0  0
  1  5  1  0  0  0  0
  2  3  2  0  0  0  0
  2 13  1  0  0  0  0
  3  4  1  0  0  0  0
  4  5  1  0  0  0  0
  4 12  1  0  0  0  0
  4 20  1  1  0  0  0
  5  6  1  0  0  0  0
  5 21  1  1  0  0  0
  6  7  1  0  0  0  0
  6 22  1  0  0  0  0
  6 23  1  0  0  0  0
  7  8  2  0  0  0  0
  7 12  1  0  0  0  0
  8  9  1  0  0  0  0
  8 24  1  0  0  0  0
  9 10  2  0  0  0  0
  9 25  1  0  0  0  0
 10 11  1  0  0  0  0
 10 26  1  0  0  0  0
 11 12  2  0  0  0  0
 11 27  1  0  0  0  0
 13 14  2  0  0  0  0
 13 18  1  0  0  0  0
 14 15  1  0  0  0  0
 14 28  1  0  0  0  0
 15 16  2  0  0  0  0
 15 29  1  0  0  0  0
 16 17  1  0  0  0  0
 16 19  1  0  0  0  0
 17 18  2  0  0  0  0
 17 30  1  0  0  0  0
M  END
$$$$
