Title Card Required
 OpenBabel03192317493D

 38 41  0  0  1  0  0  0  0  0999 V2000
    0.5374   -2.8589   -0.0945 O   0  0  0  0  0  0  0  0  0  0  0  0
    0.6100   -1.5159   -0.1861 C   0  0  0  0  0  0  0  0  0  0  0  0
   -0.4712   -0.8758   -0.3786 N   0  0  0  0  0  0  0  0  0  0  0  0
   -1.5550   -1.8500   -0.4315 C   0  0  1  0  0  0  0  0  0  0  0  0
   -0.8388   -3.2067   -0.2225 C   0  0  0  0  0  0  0  0  0  0  0  0
    1.9820   -0.9423   -0.0478 C   0  0  0  0  0  0  0  0  0  0  0  0
    2.9241   -1.8354    0.1404 N   0  0  0  0  0  0  0  0  0  0  0  0
    4.2041   -1.4372    0.2830 C   0  0  0  0  0  0  0  0  0  0  0  0
    4.5847   -0.1203    0.2451 C   0  0  0  0  0  0  0  0  0  0  0  0
    3.5984    0.8775    0.0449 C   0  0  0  0  0  0  0  0  0  0  0  0
    3.9357    2.2577   -0.0013 C   0  0  0  0  0  0  0  0  0  0  0  0
    2.9623    3.2033   -0.1978 C   0  0  0  0  0  0  0  0  0  0  0  0
    1.6126    2.8065   -0.3591 C   0  0  0  0  0  0  0  0  0  0  0  0
    1.2526    1.4806   -0.3202 C   0  0  0  0  0  0  0  0  0  0  0  0
    2.2400    0.4741   -0.1133 C   0  0  0  0  0  0  0  0  0  0  0  0
   -2.6232   -1.5563    0.6304 C   0  0  0  0  0  0  0  0  0  0  0  0
   -3.3236   -0.2403    0.4093 C   0  0  0  0  0  0  0  0  0  0  0  0
   -4.5351   -0.1867   -0.2866 C   0  0  0  0  0  0  0  0  0  0  0  0
   -5.1674    1.0322   -0.5306 C   0  0  0  0  0  0  0  0  0  0  0  0
   -4.5924    2.2181   -0.0785 C   0  0  0  0  0  0  0  0  0  0  0  0
   -3.3833    2.1770    0.6167 C   0  0  0  0  0  0  0  0  0  0  0  0
   -2.7540    0.9577    0.8570 C   0  0  0  0  0  0  0  0  0  0  0  0
   -2.0331   -1.7888   -1.4232 H   0  0  0  0  0  0  0  0  0  0  0  0
   -1.1613   -3.7158    0.6989 H   0  0  0  0  0  0  0  0  0  0  0  0
   -0.9515   -3.8977   -1.0686 H   0  0  0  0  0  0  0  0  0  0  0  0
    4.9393   -2.2317    0.4343 H   0  0  0  0  0  0  0  0  0  0  0  0
    5.6311    0.1647    0.3668 H   0  0  0  0  0  0  0  0  0  0  0  0
    4.9814    2.5451    0.1227 H   0  0  0  0  0  0  0  0  0  0  0  0
    3.2241    4.2620   -0.2320 H   0  0  0  0  0  0  0  0  0  0  0  0
    0.8446    3.5651   -0.5187 H   0  0  0  0  0  0  0  0  0  0  0  0
    0.2158    1.1793   -0.4510 H   0  0  0  0  0  0  0  0  0  0  0  0
   -3.3579   -2.3768    0.6160 H   0  0  0  0  0  0  0  0  0  0  0  0
   -2.1334   -1.5706    1.6172 H   0  0  0  0  0  0  0  0  0  0  0  0
   -4.9926   -1.1147   -0.6394 H   0  0  0  0  0  0  0  0  0  0  0  0
   -6.1139    1.0540   -1.0733 H   0  0  0  0  0  0  0  0  0  0  0  0
   -5.0863    3.1732   -0.2640 H   0  0  0  0  0  0  0  0  0  0  0  0
   -2.9287    3.1016    0.9769 H   0  0  0  0  0  0  0  0  0  0  0  0
   -1.8040    0.9262    1.3947 H   0  0  0  0  0  0  0  0  0  0  0  0
  1  2  1  0  0  0  0
  1  5  1  0  0  0  0
  2  3  2  0  0  0  0
  2  6  1  0  0  0  0
  3  4  1  0  0  0  0
  4  5  1  0  0  0  0
  4 16  1  0  0  0  0
  4 23  1  6  0  0  0
  5 24  1  0  0  0  0
  5 25  1  0  0  0  0
  6  7  2  0  0  0  0
  6 15  1  0  0  0  0
  7  8  1  0  0  0  0
  8  9  2  0  0  0  0
  8 26  1  0  0  0  0
  9 10  1  0  0  0  0
  9 27  1  0  0  0  0
 10 11  2  0  0  0  0
 10 15  1  0  0  0  0
 11 12  1  0  0  0  0
 11 28  1  0  0  0  0
 12 13  2  0  0  0  0
 12 29  1  0  0  0  0
 13 14  1  0  0  0  0
 13 30  1  0  0  0  0
 14 15  2  0  0  0  0
 14 31  1  0  0  0  0
 16 17  1  0  0  0  0
 16 32  1  0  0  0  0
 16 33  1  0  0  0  0
 17 18  2  0  0  0  0
 17 22  1  0  0  0  0
 18 19  1  0  0  0  0
 18 34  1  0  0  0  0
 19 20  2  0  0  0  0
 19 35  1  0  0  0  0
 20 21  1  0  0  0  0
 20 36  1  0  0  0  0
 21 22  2  0  0  0  0
 21 37  1  0  0  0  0
 22 38  1  0  0  0  0
M  END
$$$$
