Title Card Required
 OpenBabel03192317543D

 28 29  0  0  1  0  0  0  0  0999 V2000
    1.2568    1.7281   -0.0426 O   0  0  0  0  0  0  0  0  0  0  0  0
    0.8116    0.5050   -0.3807 C   0  0  0  0  0  0  0  0  0  0  0  0
    1.6485   -0.3555   -0.7956 N   0  0  0  0  0  0  0  0  0  0  0  0
    2.9689    0.2717   -0.7109 C   0  0  1  0  0  0  0  0  0  0  0  0
    2.6456    1.7477   -0.3778 C   0  0  0  0  0  0  0  0  0  0  0  0
    3.8444   -0.4324    0.3409 C   0  0  0  0  0  0  0  0  0  0  0  0
    3.1692   -0.4559    1.7106 C   0  0  0  0  0  0  0  0  0  0  0  0
    4.2050   -1.8419   -0.1197 C   0  0  0  0  0  0  0  0  0  0  0  0
   -0.6435    0.2538   -0.2308 C   0  0  0  0  0  0  0  0  0  0  0  0
   -1.1457   -1.0097   -0.5632 C   0  0  0  0  0  0  0  0  0  0  0  0
   -2.5083   -1.2384   -0.4255 C   0  0  0  0  0  0  0  0  0  0  0  0
   -3.3009   -0.1922    0.0407 C   0  0  0  0  0  0  0  0  0  0  0  0
   -2.7078    1.0350    0.3493 C   0  0  0  0  0  0  0  0  0  0  0  0
   -1.4071    1.2490    0.2138 N   0  0  0  0  0  0  0  0  0  0  0  0
   -5.0076   -0.3947    0.2380 Cl  0  0  0  0  0  0  0  0  0  0  0  0
    3.4724    0.1871   -1.6867 H   0  0  0  0  0  0  0  0  0  0  0  0
    3.2126    2.1386    0.4787 H   0  0  0  0  0  0  0  0  0  0  0  0
    2.7866    2.4203   -1.2364 H   0  0  0  0  0  0  0  0  0  0  0  0
    4.7720    0.1636    0.4133 H   0  0  0  0  0  0  0  0  0  0  0  0
    2.2850   -1.1102    1.6866 H   0  0  0  0  0  0  0  0  0  0  0  0
    3.8568   -0.8419    2.4763 H   0  0  0  0  0  0  0  0  0  0  0  0
    2.8366    0.5440    2.0290 H   0  0  0  0  0  0  0  0  0  0  0  0
    4.7585   -1.8234   -1.0702 H   0  0  0  0  0  0  0  0  0  0  0  0
    4.8276   -2.3542    0.6279 H   0  0  0  0  0  0  0  0  0  0  0  0
    3.2886   -2.4301   -0.2725 H   0  0  0  0  0  0  0  0  0  0  0  0
   -0.4592   -1.7763   -0.9218 H   0  0  0  0  0  0  0  0  0  0  0  0
   -2.9577   -2.2014   -0.6701 H   0  0  0  0  0  0  0  0  0  0  0  0
   -3.3264    1.8595    0.7152 H   0  0  0  0  0  0  0  0  0  0  0  0
  1  2  1  0  0  0  0
  1  5  1  0  0  0  0
  2  3  2  0  0  0  0
  2  9  1  0  0  0  0
  3  4  1  0  0  0  0
  4  5  1  0  0  0  0
  4  6  1  0  0  0  0
  4 16  1  6  0  0  0
  5 17  1  0  0  0  0
  5 18  1  0  0  0  0
  6  7  1  0  0  0  0
  6  8  1  0  0  0  0
  6 19  1  0  0  0  0
  7 20  1  0  0  0  0
  7 21  1  0  0  0  0
  7 22  1  0  0  0  0
  8 23  1  0  0  0  0
  8 24  1  0  0  0  0
  8 25  1  0  0  0  0
  9 10  2  0  0  0  0
  9 14  1  0  0  0  0
 10 11  1  0  0  0  0
 10 26  1  0  0  0  0
 11 12  2  0  0  0  0
 11 27  1  0  0  0  0
 12 13  1  0  0  0  0
 12 15  1  0  0  0  0
 13 14  2  0  0  0  0
 13 28  1  0  0  0  0
M  END
$$$$
