Title Card Required
 OpenBabel03192317573D

 31 32  0  0  1  0  0  0  0  0999 V2000
   -0.4856    1.9682    0.0085 O   0  0  0  0  0  0  0  0  0  0  0  0
   -0.5850    0.6405   -0.1790 C   0  0  0  0  0  0  0  0  0  0  0  0
    0.4646   -0.0142   -0.4658 N   0  0  0  0  0  0  0  0  0  0  0  0
    1.5682    0.9452   -0.5018 C   0  0  1  0  0  0  0  0  0  0  0  0
    0.8959    2.2962   -0.1464 C   0  0  0  0  0  0  0  0  0  0  0  0
   -1.9379    0.0418   -0.0422 C   0  0  0  0  0  0  0  0  0  0  0  0
   -2.0856   -1.3338   -0.2536 C   0  0  0  0  0  0  0  0  0  0  0  0
   -3.3552   -1.8839   -0.1241 C   0  0  0  0  0  0  0  0  0  0  0  0
   -4.4170   -1.0443    0.2083 C   0  0  0  0  0  0  0  0  0  0  0  0
   -4.1559    0.3138    0.3961 C   0  0  0  0  0  0  0  0  0  0  0  0
   -2.9458    0.8504    0.2753 N   0  0  0  0  0  0  0  0  0  0  0  0
    2.6909    0.5481    0.4532 C   0  0  0  0  0  0  0  0  0  0  0  0
    3.2070   -0.8817    0.2681 C   0  0  0  0  0  0  0  0  0  0  0  0
    3.5949   -1.1701   -1.1807 C   0  0  0  0  0  0  0  0  0  0  0  0
    4.3758   -1.1435    1.2148 C   0  0  0  0  0  0  0  0  0  0  0  0
    1.9698    0.9684   -1.5280 H   0  0  0  0  0  0  0  0  0  0  0  0
    1.2666    2.7144    0.8022 H   0  0  0  0  0  0  0  0  0  0  0  0
    0.9910    3.0571   -0.9324 H   0  0  0  0  0  0  0  0  0  0  0  0
   -1.2088   -1.9268   -0.5124 H   0  0  0  0  0  0  0  0  0  0  0  0
   -3.5158   -2.9518   -0.2804 H   0  0  0  0  0  0  0  0  0  0  0  0
   -5.4308   -1.4297    0.3205 H   0  0  0  0  0  0  0  0  0  0  0  0
   -4.9675    0.9996    0.6575 H   0  0  0  0  0  0  0  0  0  0  0  0
    3.5260    1.2611    0.3258 H   0  0  0  0  0  0  0  0  0  0  0  0
    2.3265    0.6677    1.4881 H   0  0  0  0  0  0  0  0  0  0  0  0
    2.3787   -1.5582    0.5336 H   0  0  0  0  0  0  0  0  0  0  0  0
    4.3313   -0.4345   -1.5457 H   0  0  0  0  0  0  0  0  0  0  0  0
    4.0481   -2.1683   -1.2712 H   0  0  0  0  0  0  0  0  0  0  0  0
    2.7172   -1.1413   -1.8418 H   0  0  0  0  0  0  0  0  0  0  0  0
    4.1017   -0.9339    2.2596 H   0  0  0  0  0  0  0  0  0  0  0  0
    4.7094   -2.1898    1.1552 H   0  0  0  0  0  0  0  0  0  0  0  0
    5.2348   -0.5026    0.9577 H   0  0  0  0  0  0  0  0  0  0  0  0
  1  2  1  0  0  0  0
  1  5  1  0  0  0  0
  2  3  2  0  0  0  0
  2  6  1  0  0  0  0
  3  4  1  0  0  0  0
  4  5  1  0  0  0  0
  4 12  1  0  0  0  0
  4 16  1  6  0  0  0
  5 17  1  0  0  0  0
  5 18  1  0  0  0  0
  6  7  2  0  0  0  0
  6 11  1  0  0  0  0
  7  8  1  0  0  0  0
  7 19  1  0  0  0  0
  8  9  2  0  0  0  0
  8 20  1  0  0  0  0
  9 10  1  0  0  0  0
  9 21  1  0  0  0  0
 10 11  2  0  0  0  0
 10 22  1  0  0  0  0
 12 13  1  0  0  0  0
 12 23  1  0  0  0  0
 12 24  1  0  0  0  0
 13 14  1  0  0  0  0
 13 15  1  0  0  0  0
 13 25  1  0  0  0  0
 14 26  1  0  0  0  0
 14 27  1  0  0  0  0
 14 28  1  0  0  0  0
 15 29  1  0  0  0  0
 15 30  1  0  0  0  0
 15 31  1  0  0  0  0
M  END
$$$$
