Title Card Required
 OpenBabel03192317473D

 35 36  0  0  1  0  0  0  0  0999 V2000
    1.4752    1.7084   -0.3609 O   0  0  0  0  0  0  0  0  0  0  0  0
    0.9206    0.4853   -0.4613 C   0  0  0  0  0  0  0  0  0  0  0  0
    1.6741   -0.5012   -0.7306 N   0  0  0  0  0  0  0  0  0  0  0  0
    3.0411    0.0177   -0.7838 C   0  0  1  0  0  0  0  0  0  0  0  0
    2.8443    1.5510   -0.7335 C   0  0  0  0  0  0  0  0  0  0  0  0
   -0.5458    0.3922   -0.2331 C   0  0  0  0  0  0  0  0  0  0  0  0
   -1.1428   -0.8614   -0.3094 C   0  0  0  0  0  0  0  0  0  0  0  0
   -2.5220   -0.9416   -0.0988 C   0  0  0  0  0  0  0  0  0  0  0  0
   -3.2222    0.2365    0.1804 C   0  0  0  0  0  0  0  0  0  0  0  0
   -2.5151    1.4458    0.2367 C   0  0  0  0  0  0  0  0  0  0  0  0
   -1.2027    1.5218    0.0317 N   0  0  0  0  0  0  0  0  0  0  0  0
   -3.2207    2.7399    0.5399 C   0  0  0  0  0  0  0  0  0  0  0  0
   -3.0839   -2.1584   -0.1804 O   0  0  0  0  0  0  0  0  0  0  0  0
   -4.4723   -2.2722    0.0068 C   0  0  0  0  0  0  0  0  0  0  0  0
    3.8865   -0.5458    0.3728 C   0  0  0  0  0  0  0  0  0  0  0  0
    3.2542   -0.2458    1.7306 C   0  0  0  0  0  0  0  0  0  0  0  0
    4.1090   -2.0446    0.1904 C   0  0  0  0  0  0  0  0  0  0  0  0
    3.5108   -0.2905   -1.7312 H   0  0  0  0  0  0  0  0  0  0  0  0
    3.4773    2.0516    0.0126 H   0  0  0  0  0  0  0  0  0  0  0  0
    2.9971    2.0310   -1.7116 H   0  0  0  0  0  0  0  0  0  0  0  0
   -0.5524   -1.7489   -0.5316 H   0  0  0  0  0  0  0  0  0  0  0  0
   -4.2970    0.2372    0.3542 H   0  0  0  0  0  0  0  0  0  0  0  0
   -2.8116    3.1757    1.4623 H   0  0  0  0  0  0  0  0  0  0  0  0
   -3.0343    3.4611   -0.2675 H   0  0  0  0  0  0  0  0  0  0  0  0
   -4.3025    2.6020    0.6583 H   0  0  0  0  0  0  0  0  0  0  0  0
   -4.7713   -1.9418    1.0149 H   0  0  0  0  0  0  0  0  0  0  0  0
   -5.0281   -1.6878   -0.7443 H   0  0  0  0  0  0  0  0  0  0  0  0
   -4.7165   -3.3334   -0.1103 H   0  0  0  0  0  0  0  0  0  0  0  0
    4.8638   -0.0334    0.3156 H   0  0  0  0  0  0  0  0  0  0  0  0
    2.3097   -0.7996    1.8383 H   0  0  0  0  0  0  0  0  0  0  0  0
    3.9234   -0.5523    2.5472 H   0  0  0  0  0  0  0  0  0  0  0  0
    3.0316    0.8244    1.8604 H   0  0  0  0  0  0  0  0  0  0  0  0
    4.6235   -2.2602   -0.7578 H   0  0  0  0  0  0  0  0  0  0  0  0
    4.7155   -2.4567    1.0098 H   0  0  0  0  0  0  0  0  0  0  0  0
    3.1407   -2.5651    0.1760 H   0  0  0  0  0  0  0  0  0  0  0  0
  1  2  1  0  0  0  0
  1  5  1  0  0  0  0
  2  3  2  0  0  0  0
  2  6  1  0  0  0  0
  3  4  1  0  0  0  0
  4  5  1  0  0  0  0
  4 15  1  0  0  0  0
  4 18  1  6  0  0  0
  5 19  1  0  0  0  0
  5 20  1  0  0  0  0
  6  7  2  0  0  0  0
  6 11  1  0  0  0  0
  7  8  1  0  0  0  0
  7 21  1  0  0  0  0
  8  9  2  0  0  0  0
  8 13  1  0  0  0  0
  9 10  1  0  0  0  0
  9 22  1  0  0  0  0
 10 11  2  0  0  0  0
 10 12  1  0  0  0  0
 12 23  1  0  0  0  0
 12 24  1  0  0  0  0
 12 25  1  0  0  0  0
 13 14  1  0  0  0  0
 14 26  1  0  0  0  0
 14 27  1  0  0  0  0
 14 28  1  0  0  0  0
 15 16  1  0  0  0  0
 15 17  1  0  0  0  0
 15 29  1  0  0  0  0
 16 30  1  0  0  0  0
 16 31  1  0  0  0  0
 16 32  1  0  0  0  0
 17 33  1  0  0  0  0
 17 34  1  0  0  0  0
 17 35  1  0  0  0  0
M  END
$$$$
