Title Card Required
 OpenBabel03192317463D

 49 53  0  0  1  0  0  0  0  0999 V2000
   -0.2507    0.3326    0.1361 O   0  0  0  0  0  0  0  0  0  0  0  0
   -0.1071   -0.8527   -0.4884 C   0  0  0  0  0  0  0  0  0  0  0  0
   -1.1486   -1.4520   -0.8989 N   0  0  0  0  0  0  0  0  0  0  0  0
   -2.2777   -0.5775   -0.6068 C   0  0  2  0  0  0  0  0  0  0  0  0
   -1.6555    0.5292    0.3112 C   0  0  2  0  0  0  0  0  0  0  0  0
    1.2799   -1.3525   -0.6678 C   0  0  0  0  0  0  0  0  0  0  0  0
    1.4815   -2.5650   -1.3342 C   0  0  0  0  0  0  0  0  0  0  0  0
    2.7926   -3.0040   -1.4759 C   0  0  0  0  0  0  0  0  0  0  0  0
    3.8292   -2.2282   -0.9666 C   0  0  0  0  0  0  0  0  0  0  0  0
    3.5280   -1.0153   -0.3263 C   0  0  0  0  0  0  0  0  0  0  0  0
    2.2649   -0.6070   -0.1853 N   0  0  0  0  0  0  0  0  0  0  0  0
    4.5819   -0.1270    0.2429 C   0  0  0  0  0  0  0  0  0  0  0  0
    5.9435   -0.3156   -0.0275 C   0  0  0  0  0  0  0  0  0  0  0  0
    6.9012    0.5294    0.5288 C   0  0  0  0  0  0  0  0  0  0  0  0
    6.5125    1.5763    1.3629 C   0  0  0  0  0  0  0  0  0  0  0  0
    5.1584    1.7767    1.6312 C   0  0  0  0  0  0  0  0  0  0  0  0
    4.2002    0.9354    1.0741 C   0  0  0  0  0  0  0  0  0  0  0  0
   -2.0695    1.9304   -0.0413 C   0  0  0  0  0  0  0  0  0  0  0  0
   -1.3318    2.6871   -0.9552 C   0  0  0  0  0  0  0  0  0  0  0  0
   -1.7713    3.9563   -1.3271 C   0  0  0  0  0  0  0  0  0  0  0  0
   -2.9501    4.4767   -0.7933 C   0  0  0  0  0  0  0  0  0  0  0  0
   -3.6848    3.7264    0.1243 C   0  0  0  0  0  0  0  0  0  0  0  0
   -3.2431    2.4600    0.5040 C   0  0  0  0  0  0  0  0  0  0  0  0
   -3.4577   -1.2694    0.0299 C   0  0  0  0  0  0  0  0  0  0  0  0
   -3.2789   -2.4042    0.8251 C   0  0  0  0  0  0  0  0  0  0  0  0
   -4.3689   -2.9951    1.4618 C   0  0  0  0  0  0  0  0  0  0  0  0
   -5.6468   -2.4562    1.3123 C   0  0  0  0  0  0  0  0  0  0  0  0
   -5.8320   -1.3271    0.5157 C   0  0  0  0  0  0  0  0  0  0  0  0
   -4.7424   -0.7399   -0.1260 C   0  0  0  0  0  0  0  0  0  0  0  0
   -2.6138   -0.1211   -1.5545 H   0  0  0  0  0  0  0  0  0  0  0  0
   -1.8983    0.3158    1.3658 H   0  0  0  0  0  0  0  0  0  0  0  0
    0.6225   -3.1195   -1.7104 H   0  0  0  0  0  0  0  0  0  0  0  0
    3.0089   -3.9483   -1.9776 H   0  0  0  0  0  0  0  0  0  0  0  0
    4.8588   -2.5710   -1.0550 H   0  0  0  0  0  0  0  0  0  0  0  0
    6.2718   -1.1171   -0.6899 H   0  0  0  0  0  0  0  0  0  0  0  0
    7.9571    0.3702    0.3050 H   0  0  0  0  0  0  0  0  0  0  0  0
    7.2630    2.2378    1.7985 H   0  0  0  0  0  0  0  0  0  0  0  0
    4.8456    2.5970    2.2791 H   0  0  0  0  0  0  0  0  0  0  0  0
    3.1377    1.0830    1.2676 H   0  0  0  0  0  0  0  0  0  0  0  0
   -0.4027    2.2788   -1.3560 H   0  0  0  0  0  0  0  0  0  0  0  0
   -1.1863    4.5451   -2.0354 H   0  0  0  0  0  0  0  0  0  0  0  0
   -3.2916    5.4705   -1.0865 H   0  0  0  0  0  0  0  0  0  0  0  0
   -4.6018    4.1328    0.5539 H   0  0  0  0  0  0  0  0  0  0  0  0
   -3.8120    1.8756    1.2316 H   0  0  0  0  0  0  0  0  0  0  0  0
   -2.2781   -2.8283    0.9263 H   0  0  0  0  0  0  0  0  0  0  0  0
   -4.2203   -3.8851    2.0756 H   0  0  0  0  0  0  0  0  0  0  0  0
   -6.4989   -2.9214    1.8103 H   0  0  0  0  0  0  0  0  0  0  0  0
   -6.8303   -0.9061    0.3857 H   0  0  0  0  0  0  0  0  0  0  0  0
   -4.8883    0.1383   -0.7603 H   0  0  0  0  0  0  0  0  0  0  0  0
  1  2  1  0  0  0  0
  1  5  1  0  0  0  0
  2  3  2  0  0  0  0
  2  6  1  0  0  0  0
  3  4  1  0  0  0  0
  4  5  1  0  0  0  0
  4 24  1  0  0  0  0
  4 30  1  6  0  0  0
  5 18  1  0  0  0  0
  5 31  1  1  0  0  0
  6  7  2  0  0  0  0
  6 11  1  0  0  0  0
  7  8  1  0  0  0  0
  7 32  1  0  0  0  0
  8  9  2  0  0  0  0
  8 33  1  0  0  0  0
  9 10  1  0  0  0  0
  9 34  1  0  0  0  0
 10 11  2  0  0  0  0
 10 12  1  0  0  0  0
 12 13  2  0  0  0  0
 12 17  1  0  0  0  0
 13 14  1  0  0  0  0
 13 35  1  0  0  0  0
 14 15  2  0  0  0  0
 14 36  1  0  0  0  0
 15 16  1  0  0  0  0
 15 37  1  0  0  0  0
 16 17  2  0  0  0  0
 16 38  1  0  0  0  0
 17 39  1  0  0  0  0
 18 19  2  0  0  0  0
 18 23  1  0  0  0  0
 19 20  1  0  0  0  0
 19 40  1  0  0  0  0
 20 21  2  0  0  0  0
 20 41  1  0  0  0  0
 21 22  1  0  0  0  0
 21 42  1  0  0  0  0
 22 23  2  0  0  0  0
 22 43  1  0  0  0  0
 23 44  1  0  0  0  0
 24 25  2  0  0  0  0
 24 29  1  0  0  0  0
 25 26  1  0  0  0  0
 25 45  1  0  0  0  0
 26 27  2  0  0  0  0
 26 46  1  0  0  0  0
 27 28  1  0  0  0  0
 27 47  1  0  0  0  0
 28 29  2  0  0  0  0
 28 48  1  0  0  0  0
 29 49  1  0  0  0  0
M  END
$$$$
