Title Card Required
 OpenBabel03192317463D

 35 39  0  0  1  0  0  0  0  0999 V2000
   -0.6135   -1.3780    0.7425 O   0  0  0  0  0  0  0  0  0  0  0  0
   -0.2335   -0.0973    0.8877 C   0  0  0  0  0  0  0  0  0  0  0  0
   -1.0797    0.7502    1.3133 N   0  0  0  0  0  0  0  0  0  0  0  0
   -2.3372    0.0211    1.4662 C   0  0  2  0  0  0  0  0  0  0  0  0
   -1.9624   -1.4717    1.2164 C   0  0  1  0  0  0  0  0  0  0  0  0
   -2.9028   -2.0176    0.1338 C   0  0  0  0  0  0  0  0  0  0  0  0
   -3.6063   -0.7935   -0.4042 C   0  0  0  0  0  0  0  0  0  0  0  0
   -4.4696   -0.6993   -1.4951 C   0  0  0  0  0  0  0  0  0  0  0  0
   -5.0271    0.5385   -1.8141 C   0  0  0  0  0  0  0  0  0  0  0  0
   -4.7247    1.6732   -1.0547 C   0  0  0  0  0  0  0  0  0  0  0  0
   -3.8619    1.5808    0.0363 C   0  0  0  0  0  0  0  0  0  0  0  0
   -3.3160    0.3404    0.3567 C   0  0  0  0  0  0  0  0  0  0  0  0
    1.9498   -0.7361    0.1361 N   0  0  0  0  0  0  0  0  0  0  0  0
    1.1725    0.2353    0.5361 C   0  0  0  0  0  0  0  0  0  0  0  0
    1.5795    1.5959    0.6617 C   0  0  0  0  0  0  0  0  0  0  0  0
    2.8710    1.9121    0.3439 C   0  0  0  0  0  0  0  0  0  0  0  0
    3.7465    0.8835   -0.0942 C   0  0  0  0  0  0  0  0  0  0  0  0
    5.1020    1.1034   -0.4454 C   0  0  0  0  0  0  0  0  0  0  0  0
    5.8603    0.0376   -0.8540 C   0  0  0  0  0  0  0  0  0  0  0  0
    5.2510   -1.2458   -0.9072 C   0  0  0  0  0  0  0  0  0  0  0  0
    4.0058   -1.4843   -0.5911 N   0  0  0  0  0  0  0  0  0  0  0  0
    3.2346   -0.4448   -0.1836 C   0  0  0  0  0  0  0  0  0  0  0  0
   -2.7674    0.2135    2.4605 H   0  0  0  0  0  0  0  0  0  0  0  0
   -1.9511   -2.0921    2.1230 H   0  0  0  0  0  0  0  0  0  0  0  0
   -2.3260   -2.5543   -0.6329 H   0  0  0  0  0  0  0  0  0  0  0  0
   -3.6226   -2.7304    0.5647 H   0  0  0  0  0  0  0  0  0  0  0  0
   -4.7043   -1.5809   -2.0952 H   0  0  0  0  0  0  0  0  0  0  0  0
   -5.7028    0.6232   -2.6667 H   0  0  0  0  0  0  0  0  0  0  0  0
   -5.1636    2.6357   -1.3220 H   0  0  0  0  0  0  0  0  0  0  0  0
   -3.6065    2.4627    0.6267 H   0  0  0  0  0  0  0  0  0  0  0  0
    0.8523    2.3303    1.0054 H   0  0  0  0  0  0  0  0  0  0  0  0
    3.2412    2.9368    0.4206 H   0  0  0  0  0  0  0  0  0  0  0  0
    5.5169    2.1120   -0.3837 H   0  0  0  0  0  0  0  0  0  0  0  0
    6.9073    0.1545   -1.1339 H   0  0  0  0  0  0  0  0  0  0  0  0
    5.8482   -2.1057   -1.2308 H   0  0  0  0  0  0  0  0  0  0  0  0
  1  2  1  0  0  0  0
  1  5  1  0  0  0  0
  2  3  2  0  0  0  0
  2 14  1  0  0  0  0
  3  4  1  0  0  0  0
  4  5  1  0  0  0  0
  4 12  1  0  0  0  0
  4 23  1  1  0  0  0
  5  6  1  0  0  0  0
  5 24  1  1  0  0  0
  6  7  1  0  0  0  0
  6 25  1  0  0  0  0
  6 26  1  0  0  0  0
  7  8  2  0  0  0  0
  7 12  1  0  0  0  0
  8  9  1  0  0  0  0
  8 27  1  0  0  0  0
  9 10  2  0  0  0  0
  9 28  1  0  0  0  0
 10 11  1  0  0  0  0
 10 29  1  0  0  0  0
 11 12  2  0  0  0  0
 11 30  1  0  0  0  0
 13 14  1  0  0  0  0
 13 22  2  0  0  0  0
 14 15  2  0  0  0  0
 15 16  1  0  0  0  0
 15 31  1  0  0  0  0
 16 17  2  0  0  0  0
 16 32  1  0  0  0  0
 17 18  1  0  0  0  0
 17 22  1  0  0  0  0
 18 19  2  0  0  0  0
 18 33  1  0  0  0  0
 19 20  1  0  0  0  0
 19 34  1  0  0  0  0
 20 21  2  0  0  0  0
 20 35  1  0  0  0  0
 21 22  1  0  0  0  0
M  END
$$$$
