Title Card Required
 OpenBabel03192317513D

 39 42  0  0  1  0  0  0  0  0999 V2000
   -0.7887   -0.9811   -1.0706 O   0  0  0  0  0  0  0  0  0  0  0  0
   -0.8518    0.3491   -0.8689 C   0  0  0  0  0  0  0  0  0  0  0  0
   -1.9639    0.9383   -1.0400 N   0  0  0  0  0  0  0  0  0  0  0  0
   -2.9436   -0.1029   -1.3713 C   0  0  1  0  0  0  0  0  0  0  0  0
   -2.0605   -1.3587   -1.5986 C   0  0  0  0  0  0  0  0  0  0  0  0
    0.3998    1.0261   -0.4434 C   0  0  0  0  0  0  0  0  0  0  0  0
    0.3736    2.4037   -0.2043 C   0  0  0  0  0  0  0  0  0  0  0  0
    1.5657    3.0082    0.1763 C   0  0  0  0  0  0  0  0  0  0  0  0
    2.7106    2.2290    0.3123 C   0  0  0  0  0  0  0  0  0  0  0  0
    2.6334    0.8488    0.0679 C   0  0  0  0  0  0  0  0  0  0  0  0
    1.4871    0.2786   -0.3105 N   0  0  0  0  0  0  0  0  0  0  0  0
    3.8138   -0.0532    0.1965 C   0  0  0  0  0  0  0  0  0  0  0  0
    5.0017    0.3556    0.8163 C   0  0  0  0  0  0  0  0  0  0  0  0
    6.0867   -0.5126    0.9136 C   0  0  0  0  0  0  0  0  0  0  0  0
    6.0012   -1.8028    0.3930 C   0  0  0  0  0  0  0  0  0  0  0  0
    4.8194   -2.2211   -0.2190 C   0  0  0  0  0  0  0  0  0  0  0  0
    3.7336   -1.3562   -0.3140 C   0  0  0  0  0  0  0  0  0  0  0  0
   -3.9521   -0.2613   -0.2508 C   0  0  0  0  0  0  0  0  0  0  0  0
   -5.3111   -0.0300   -0.4637 C   0  0  0  0  0  0  0  0  0  0  0  0
   -6.2289   -0.1852    0.5765 C   0  0  0  0  0  0  0  0  0  0  0  0
   -5.7913   -0.5732    1.8403 C   0  0  0  0  0  0  0  0  0  0  0  0
   -4.4322   -0.8063    2.0616 C   0  0  0  0  0  0  0  0  0  0  0  0
   -3.5198   -0.6504    1.0224 C   0  0  0  0  0  0  0  0  0  0  0  0
   -3.4820    0.1785   -2.2876 H   0  0  0  0  0  0  0  0  0  0  0  0
   -2.4191   -2.2480   -1.0649 H   0  0  0  0  0  0  0  0  0  0  0  0
   -1.9388   -1.5969   -2.6657 H   0  0  0  0  0  0  0  0  0  0  0  0
   -0.5606    2.9501   -0.3285 H   0  0  0  0  0  0  0  0  0  0  0  0
    1.6073    4.0824    0.3621 H   0  0  0  0  0  0  0  0  0  0  0  0
    3.6558    2.6931    0.5899 H   0  0  0  0  0  0  0  0  0  0  0  0
    5.0874    1.3538    1.2471 H   0  0  0  0  0  0  0  0  0  0  0  0
    7.0027   -0.1793    1.4040 H   0  0  0  0  0  0  0  0  0  0  0  0
    6.8517   -2.4821    0.4678 H   0  0  0  0  0  0  0  0  0  0  0  0
    4.7423   -3.2309   -0.6253 H   0  0  0  0  0  0  0  0  0  0  0  0
    2.8004   -1.6696   -0.7822 H   0  0  0  0  0  0  0  0  0  0  0  0
   -5.6553    0.2778   -1.4537 H   0  0  0  0  0  0  0  0  0  0  0  0
   -7.2892   -0.0002    0.3970 H   0  0  0  0  0  0  0  0  0  0  0  0
   -6.5076   -0.6944    2.6543 H   0  0  0  0  0  0  0  0  0  0  0  0
   -4.0835   -1.1102    3.0499 H   0  0  0  0  0  0  0  0  0  0  0  0
   -2.4556   -0.8332    1.1984 H   0  0  0  0  0  0  0  0  0  0  0  0
  1  2  1  0  0  0  0
  1  5  1  0  0  0  0
  2  3  2  0  0  0  0
  2  6  1  0  0  0  0
  3  4  1  0  0  0  0
  4  5  1  0  0  0  0
  4 18  1  0  0  0  0
  4 24  1  6  0  0  0
  5 25  1  0  0  0  0
  5 26  1  0  0  0  0
  6  7  2  0  0  0  0
  6 11  1  0  0  0  0
  7  8  1  0  0  0  0
  7 27  1  0  0  0  0
  8  9  2  0  0  0  0
  8 28  1  0  0  0  0
  9 10  1  0  0  0  0
  9 29  1  0  0  0  0
 10 11  2  0  0  0  0
 10 12  1  0  0  0  0
 12 13  2  0  0  0  0
 12 17  1  0  0  0  0
 13 14  1  0  0  0  0
 13 30  1  0  0  0  0
 14 15  2  0  0  0  0
 14 31  1  0  0  0  0
 15 16  1  0  0  0  0
 15 32  1  0  0  0  0
 16 17  2  0  0  0  0
 16 33  1  0  0  0  0
 17 34  1  0  0  0  0
 18 19  2  0  0  0  0
 18 23  1  0  0  0  0
 19 20  1  0  0  0  0
 19 35  1  0  0  0  0
 20 21  2  0  0  0  0
 20 36  1  0  0  0  0
 21 22  1  0  0  0  0
 21 37  1  0  0  0  0
 22 23  2  0  0  0  0
 22 38  1  0  0  0  0
 23 39  1  0  0  0  0
M  END
$$$$
