Title Card Required
 OpenBabel03192317533D

 77 83  0  0  1  0  0  0  0  0999 V2000
   -1.2112   -0.8315    0.0111 O   0  0  0  0  0  0  0  0  0  0  0  0
   -1.1937    0.4714   -0.3587 C   0  0  0  0  0  0  0  0  0  0  0  0
   -2.1376    1.2135    0.0400 N   0  0  0  0  0  0  0  0  0  0  0  0
   -2.9476    0.4172    0.9581 C   0  0  2  0  0  0  0  0  0  0  0  0
   -2.4387   -1.0556    0.7079 C   0  0  1  0  0  0  0  0  0  0  0  0
   -0.0394    0.8626   -1.2478 C   0  0  1  0  0  0  0  0  0  0  0  0
    3.4338    0.7563   -0.2065 C   0  0  2  0  0  0  0  0  0  0  0  0
    2.7086    0.2964    1.1161 C   0  0  1  0  0  0  0  0  0  0  0  0
    1.2990    0.5060    0.8043 N   0  0  0  0  0  0  0  0  0  0  0  0
    1.2219    0.6715   -0.4463 C   0  0  0  0  0  0  0  0  0  0  0  0
    2.3689    0.7158   -1.1641 O   0  0  0  0  0  0  0  0  0  0  0  0
   -0.0189   -0.0601   -2.4789 C   0  0  0  0  0  0  0  0  0  0  0  0
   -3.3718   -1.9138   -0.1119 C   0  0  0  0  0  0  0  0  0  0  0  0
   -4.4338    0.6132    0.8031 C   0  0  0  0  0  0  0  0  0  0  0  0
    2.9788   -1.1453    1.5032 C   0  0  0  0  0  0  0  0  0  0  0  0
    4.6056   -0.0657   -0.6572 C   0  0  0  0  0  0  0  0  0  0  0  0
   -4.4566   -2.5352    0.5154 C   0  0  0  0  0  0  0  0  0  0  0  0
   -5.3933   -3.2435   -0.2309 C   0  0  0  0  0  0  0  0  0  0  0  0
   -5.2483   -3.3499   -1.6149 C   0  0  0  0  0  0  0  0  0  0  0  0
   -4.1580   -2.7516   -2.2420 C   0  0  0  0  0  0  0  0  0  0  0  0
   -3.2224   -2.0363   -1.4938 C   0  0  0  0  0  0  0  0  0  0  0  0
   -5.0013    0.8002   -0.4602 C   0  0  0  0  0  0  0  0  0  0  0  0
   -6.3837    0.8773   -0.6056 C   0  0  0  0  0  0  0  0  0  0  0  0
   -7.2137    0.7740    0.5117 C   0  0  0  0  0  0  0  0  0  0  0  0
   -6.6537    0.6049    1.7764 C   0  0  0  0  0  0  0  0  0  0  0  0
   -5.2686    0.5276    1.9189 C   0  0  0  0  0  0  0  0  0  0  0  0
    4.1802   -1.4703    2.1423 C   0  0  0  0  0  0  0  0  0  0  0  0
    4.5043   -2.7959    2.4149 C   0  0  0  0  0  0  0  0  0  0  0  0
    3.6199   -3.8161    2.0613 C   0  0  0  0  0  0  0  0  0  0  0  0
    2.4111   -3.4977    1.4470 C   0  0  0  0  0  0  0  0  0  0  0  0
    2.0879   -2.1681    1.1694 C   0  0  0  0  0  0  0  0  0  0  0  0
    4.4111   -1.2716   -1.3371 C   0  0  0  0  0  0  0  0  0  0  0  0
    5.4996   -2.0761   -1.6610 C   0  0  0  0  0  0  0  0  0  0  0  0
    6.7923   -1.6838   -1.3090 C   0  0  0  0  0  0  0  0  0  0  0  0
    6.9920   -0.4775   -0.6414 C   0  0  0  0  0  0  0  0  0  0  0  0
    5.9011    0.3308   -0.3217 C   0  0  0  0  0  0  0  0  0  0  0  0
   -0.1412    2.3469   -1.7027 C   0  0  0  0  0  0  0  0  0  0  0  0
    0.4081    3.3583   -0.7230 C   0  0  0  0  0  0  0  0  0  0  0  0
    1.7359    3.7873   -0.8436 C   0  0  0  0  0  0  0  0  0  0  0  0
    2.2854    4.6821    0.0743 C   0  0  0  0  0  0  0  0  0  0  0  0
    1.5083    5.1660    1.1256 C   0  0  0  0  0  0  0  0  0  0  0  0
    0.1815    4.7548    1.2460 C   0  0  0  0  0  0  0  0  0  0  0  0
   -0.3660    3.8578    0.3300 C   0  0  0  0  0  0  0  0  0  0  0  0
   -2.6646    0.7133    1.9816 H   0  0  0  0  0  0  0  0  0  0  0  0
   -2.2065   -1.5531    1.6588 H   0  0  0  0  0  0  0  0  0  0  0  0
    3.7299    1.8123   -0.0936 H   0  0  0  0  0  0  0  0  0  0  0  0
    3.0151    0.9512    1.9443 H   0  0  0  0  0  0  0  0  0  0  0  0
   -0.9206    0.1164   -3.0837 H   0  0  0  0  0  0  0  0  0  0  0  0
    0.8661    0.1603   -3.0886 H   0  0  0  0  0  0  0  0  0  0  0  0
    0.0091   -1.1159   -2.1769 H   0  0  0  0  0  0  0  0  0  0  0  0
   -4.5789   -2.4455    1.5975 H   0  0  0  0  0  0  0  0  0  0  0  0
   -6.2402   -3.7160    0.2689 H   0  0  0  0  0  0  0  0  0  0  0  0
   -5.9816   -3.9056   -2.2011 H   0  0  0  0  0  0  0  0  0  0  0  0
   -4.0323   -2.8405   -3.3223 H   0  0  0  0  0  0  0  0  0  0  0  0
   -2.3682   -1.5691   -1.9850 H   0  0  0  0  0  0  0  0  0  0  0  0
   -4.3449    0.8777   -1.3291 H   0  0  0  0  0  0  0  0  0  0  0  0
   -6.8182    1.0169   -1.5969 H   0  0  0  0  0  0  0  0  0  0  0  0
   -8.2971    0.8333    0.3962 H   0  0  0  0  0  0  0  0  0  0  0  0
   -7.2964    0.5386    2.6558 H   0  0  0  0  0  0  0  0  0  0  0  0
   -4.8287    0.3955    2.9111 H   0  0  0  0  0  0  0  0  0  0  0  0
    4.8785   -0.6744    2.4137 H   0  0  0  0  0  0  0  0  0  0  0  0
    5.4494   -3.0341    2.9054 H   0  0  0  0  0  0  0  0  0  0  0  0
    3.8708   -4.8568    2.2729 H   0  0  0  0  0  0  0  0  0  0  0  0
    1.7088   -4.2900    1.1821 H   0  0  0  0  0  0  0  0  0  0  0  0
    1.1338   -1.9189    0.7000 H   0  0  0  0  0  0  0  0  0  0  0  0
    3.3974   -1.5761   -1.6029 H   0  0  0  0  0  0  0  0  0  0  0  0
    5.3388   -3.0183   -2.1872 H   0  0  0  0  0  0  0  0  0  0  0  0
    7.6442   -2.3171   -1.5615 H   0  0  0  0  0  0  0  0  0  0  0  0
    8.0009   -0.1603   -0.3730 H   0  0  0  0  0  0  0  0  0  0  0  0
    6.0577    1.2795    0.1982 H   0  0  0  0  0  0  0  0  0  0  0  0
    0.4190    2.4328   -2.6446 H   0  0  0  0  0  0  0  0  0  0  0  0
   -1.1994    2.5511   -1.9166 H   0  0  0  0  0  0  0  0  0  0  0  0
    2.3458    3.4095   -1.6685 H   0  0  0  0  0  0  0  0  0  0  0  0
    3.3206    5.0098   -0.0387 H   0  0  0  0  0  0  0  0  0  0  0  0
    1.9329    5.8688    1.8446 H   0  0  0  0  0  0  0  0  0  0  0  0
   -0.4356    5.1354    2.0616 H   0  0  0  0  0  0  0  0  0  0  0  0
   -1.3984    3.5206    0.4285 H   0  0  0  0  0  0  0  0  0  0  0  0
  1  2  1  0  0  0  0
  1  5  1  0  0  0  0
  2  3  2  0  0  0  0
  2  6  1  0  0  0  0
  3  4  1  0  0  0  0
  4  5  1  0  0  0  0
  4 14  1  0  0  0  0
  4 44  1  1  0  0  0
  5 13  1  0  0  0  0
  5 45  1  1  0  0  0
  6 10  1  0  0  0  0
  6 12  1  6  0  0  0
  6 37  1  0  0  0  0
  7  8  1  0  0  0  0
  7 11  1  0  0  0  0
  7 16  1  0  0  0  0
  7 46  1  1  0  0  0
  8  9  1  0  0  0  0
  8 15  1  0  0  0  0
  8 47  1  1  0  0  0
  9 10  2  0  0  0  0
 10 11  1  0  0  0  0
 12 48  1  0  0  0  0
 12 49  1  0  0  0  0
 12 50  1  0  0  0  0
 13 17  2  0  0  0  0
 13 21  1  0  0  0  0
 14 22  2  0  0  0  0
 14 26  1  0  0  0  0
 15 27  2  0  0  0  0
 15 31  1  0  0  0  0
 16 32  2  0  0  0  0
 16 36  1  0  0  0  0
 17 18  1  0  0  0  0
 17 51  1  0  0  0  0
 18 19  2  0  0  0  0
 18 52  1  0  0  0  0
 19 20  1  0  0  0  0
 19 53  1  0  0  0  0
 20 21  2  0  0  0  0
 20 54  1  0  0  0  0
 21 55  1  0  0  0  0
 22 23  1  0  0  0  0
 22 56  1  0  0  0  0
 23 24  2  0  0  0  0
 23 57  1  0  0  0  0
 24 25  1  0  0  0  0
 24 58  1  0  0  0  0
 25 26  2  0  0  0  0
 25 59  1  0  0  0  0
 26 60  1  0  0  0  0
 27 28  1  0  0  0  0
 27 61  1  0  0  0  0
 28 29  2  0  0  0  0
 28 62  1  0  0  0  0
 29 30  1  0  0  0  0
 29 63  1  0  0  0  0
 30 31  2  0  0  0  0
 30 64  1  0  0  0  0
 31 65  1  0  0  0  0
 32 33  1  0  0  0  0
 32 66  1  0  0  0  0
 33 34  2  0  0  0  0
 33 67  1  0  0  0  0
 34 35  1  0  0  0  0
 34 68  1  0  0  0  0
 35 36  2  0  0  0  0
 35 69  1  0  0  0  0
 36 70  1  0  0  0  0
 37 38  1  0  0  0  0
 37 71  1  0  0  0  0
 37 72  1  0  0  0  0
 38 39  2  0  0  0  0
 38 43  1  0  0  0  0
 39 40  1  0  0  0  0
 39 73  1  0  0  0  0
 40 41  2  0  0  0  0
 40 74  1  0  0  0  0
 41 42  1  0  0  0  0
 41 75  1  0  0  0  0
 42 43  2  0  0  0  0
 42 76  1  0  0  0  0
 43 77  1  0  0  0  0
M  END
$$$$
