Title Card Required
 OpenBabel03192317553D

 33 35  0  0  1  0  0  0  0  0999 V2000
   -1.3973   -1.6305   -0.2980 O   0  0  0  0  0  0  0  0  0  0  0  0
   -1.1204   -0.3279   -0.4714 C   0  0  0  0  0  0  0  0  0  0  0  0
   -2.0729    0.4691   -0.7390 N   0  0  0  0  0  0  0  0  0  0  0  0
   -3.3016   -0.3267   -0.7151 C   0  0  1  0  0  0  0  0  0  0  0  0
   -2.7857   -1.7811   -0.5994 C   0  0  0  0  0  0  0  0  0  0  0  0
    1.1900   -0.8371   -0.0849 N   0  0  0  0  0  0  0  0  0  0  0  0
    0.2997    0.0890   -0.3259 C   0  0  0  0  0  0  0  0  0  0  0  0
    0.5958    1.4772   -0.4628 C   0  0  0  0  0  0  0  0  0  0  0  0
    1.8983    1.8719   -0.3342 C   0  0  0  0  0  0  0  0  0  0  0  0
    2.8938    0.8943   -0.0724 C   0  0  0  0  0  0  0  0  0  0  0  0
    4.2702    1.1988    0.0772 C   0  0  0  0  0  0  0  0  0  0  0  0
    5.1494    0.1778    0.3268 C   0  0  0  0  0  0  0  0  0  0  0  0
    4.6391   -1.1456    0.4244 C   0  0  0  0  0  0  0  0  0  0  0  0
    3.3780   -1.4615    0.2927 N   0  0  0  0  0  0  0  0  0  0  0  0
    2.4879   -0.4673    0.0459 C   0  0  0  0  0  0  0  0  0  0  0  0
   -4.2166    0.1121    0.4421 C   0  0  0  0  0  0  0  0  0  0  0  0
   -3.5002    0.0333    1.7890 C   0  0  0  0  0  0  0  0  0  0  0  0
   -4.7634    1.5145    0.1905 C   0  0  0  0  0  0  0  0  0  0  0  0
   -3.8478   -0.1743   -1.6592 H   0  0  0  0  0  0  0  0  0  0  0  0
   -3.2649   -2.3541    0.2067 H   0  0  0  0  0  0  0  0  0  0  0  0
   -2.8781   -2.3421   -1.5407 H   0  0  0  0  0  0  0  0  0  0  0  0
   -0.2202    2.1696   -0.6652 H   0  0  0  0  0  0  0  0  0  0  0  0
    2.1865    2.9212   -0.4289 H   0  0  0  0  0  0  0  0  0  0  0  0
    4.6051    2.2351   -0.0085 H   0  0  0  0  0  0  0  0  0  0  0  0
    6.2173    0.3593    0.4497 H   0  0  0  0  0  0  0  0  0  0  0  0
    5.3332   -1.9701    0.6224 H   0  0  0  0  0  0  0  0  0  0  0  0
   -5.0614   -0.5999    0.4491 H   0  0  0  0  0  0  0  0  0  0  0  0
   -2.7085    0.7953    1.8438 H   0  0  0  0  0  0  0  0  0  0  0  0
   -4.2035    0.2146    2.6140 H   0  0  0  0  0  0  0  0  0  0  0  0
   -3.0310   -0.9486    1.9548 H   0  0  0  0  0  0  0  0  0  0  0  0
   -5.3414    1.5571   -0.7445 H   0  0  0  0  0  0  0  0  0  0  0  0
   -5.4194    1.8352    1.0125 H   0  0  0  0  0  0  0  0  0  0  0  0
   -3.9325    2.2300    0.1086 H   0  0  0  0  0  0  0  0  0  0  0  0
  1  2  1  0  0  0  0
  1  5  1  0  0  0  0
  2  3  2  0  0  0  0
  2  7  1  0  0  0  0
  3  4  1  0  0  0  0
  4  5  1  0  0  0  0
  4 16  1  0  0  0  0
  4 19  1  6  0  0  0
  5 20  1  0  0  0  0
  5 21  1  0  0  0  0
  6  7  1  0  0  0  0
  6 15  2  0  0  0  0
  7  8  2  0  0  0  0
  8  9  1  0  0  0  0
  8 22  1  0  0  0  0
  9 10  2  0  0  0  0
  9 23  1  0  0  0  0
 10 11  1  0  0  0  0
 10 15  1  0  0  0  0
 11 12  2  0  0  0  0
 11 24  1  0  0  0  0
 12 13  1  0  0  0  0
 12 25  1  0  0  0  0
 13 14  2  0  0  0  0
 13 26  1  0  0  0  0
 14 15  1  0  0  0  0
 16 17  1  0  0  0  0
 16 18  1  0  0  0  0
 16 27  1  0  0  0  0
 17 28  1  0  0  0  0
 17 29  1  0  0  0  0
 17 30  1  0  0  0  0
 18 31  1  0  0  0  0
 18 32  1  0  0  0  0
 18 33  1  0  0  0  0
M  END
$$$$
