Title Card Required
 OpenBabel03192317513D

 57 61  0  0  1  0  0  0  0  0999 V2000
   -2.1728    0.7944   -1.7792 O   0  0  0  0  0  0  0  0  0  0  0  0
   -1.2186    0.4158   -0.8999 C   0  0  0  0  0  0  0  0  0  0  0  0
   -1.5752   -0.0461    0.2216 N   0  0  0  0  0  0  0  0  0  0  0  0
   -3.0346   -0.0681    0.2308 C   0  0  1  0  0  0  0  0  0  0  0  0
   -3.4218    0.6459   -1.0993 C   0  0  0  0  0  0  0  0  0  0  0  0
    0.1957    0.6791   -1.3437 C   0  0  1  0  0  0  0  0  0  0  0  0
    1.8013   -1.8985    0.6333 C   0  0  0  0  0  0  0  0  0  0  0  0
    2.6768   -0.6707    1.0141 C   0  0  2  0  0  0  0  0  0  0  0  0
    2.0031    0.4424    0.3477 N   0  0  0  0  0  0  0  0  0  0  0  0
    1.1111   -0.0580   -0.4007 C   0  0  0  0  0  0  0  0  0  0  0  0
    0.9823   -1.4022   -0.4238 O   0  0  0  0  0  0  0  0  0  0  0  0
    0.4247    0.1413   -2.7664 C   0  0  0  0  0  0  0  0  0  0  0  0
    4.1274   -0.8103    0.5909 C   0  0  0  0  0  0  0  0  0  0  0  0
   -3.5863   -1.4770    0.3369 C   0  0  0  0  0  0  0  0  0  0  0  0
   -4.9375   -1.6638    0.6486 C   0  0  0  0  0  0  0  0  0  0  0  0
   -5.4833   -2.9438    0.7027 C   0  0  0  0  0  0  0  0  0  0  0  0
   -4.6786   -4.0555    0.4515 C   0  0  0  0  0  0  0  0  0  0  0  0
   -3.3303   -3.8762    0.1488 C   0  0  0  0  0  0  0  0  0  0  0  0
   -2.7834   -2.5934    0.0921 C   0  0  0  0  0  0  0  0  0  0  0  0
    4.6227   -0.1938   -0.5594 C   0  0  0  0  0  0  0  0  0  0  0  0
    5.9512   -0.3800   -0.9436 C   0  0  0  0  0  0  0  0  0  0  0  0
    6.7983   -1.1827   -0.1828 C   0  0  0  0  0  0  0  0  0  0  0  0
    6.3114   -1.7985    0.9708 C   0  0  0  0  0  0  0  0  0  0  0  0
    4.9864   -1.6094    1.3542 C   0  0  0  0  0  0  0  0  0  0  0  0
    0.4464    2.2145   -1.3109 C   0  0  0  0  0  0  0  0  0  0  0  0
   -0.2672    2.9525   -0.2013 C   0  0  0  0  0  0  0  0  0  0  0  0
    0.2646    3.0304    1.0907 C   0  0  0  0  0  0  0  0  0  0  0  0
   -0.4413    3.6705    2.1080 C   0  0  0  0  0  0  0  0  0  0  0  0
   -1.6882    4.2400    1.8527 C   0  0  0  0  0  0  0  0  0  0  0  0
   -2.2230    4.1762    0.5667 C   0  0  0  0  0  0  0  0  0  0  0  0
   -1.5140    3.5396   -0.4513 C   0  0  0  0  0  0  0  0  0  0  0  0
   -3.3932    0.5129    1.0944 H   0  0  0  0  0  0  0  0  0  0  0  0
   -4.1007    0.0540   -1.7268 H   0  0  0  0  0  0  0  0  0  0  0  0
   -3.8440    1.6474   -0.9304 H   0  0  0  0  0  0  0  0  0  0  0  0
    2.3820   -2.7542    0.2667 H   0  0  0  0  0  0  0  0  0  0  0  0
    1.1451   -2.2125    1.4580 H   0  0  0  0  0  0  0  0  0  0  0  0
    2.6530   -0.5073    2.1017 H   0  0  0  0  0  0  0  0  0  0  0  0
   -0.2968    0.6003   -3.4537 H   0  0  0  0  0  0  0  0  0  0  0  0
    1.4436    0.3944   -3.0938 H   0  0  0  0  0  0  0  0  0  0  0  0
    0.3052   -0.9490   -2.7955 H   0  0  0  0  0  0  0  0  0  0  0  0
   -5.5686   -0.7953    0.8566 H   0  0  0  0  0  0  0  0  0  0  0  0
   -6.5385   -3.0756    0.9475 H   0  0  0  0  0  0  0  0  0  0  0  0
   -5.1024   -5.0599    0.4966 H   0  0  0  0  0  0  0  0  0  0  0  0
   -2.6949   -4.7425   -0.0439 H   0  0  0  0  0  0  0  0  0  0  0  0
   -1.7250   -2.4462   -0.1322 H   0  0  0  0  0  0  0  0  0  0  0  0
    3.9632    0.4464   -1.1470 H   0  0  0  0  0  0  0  0  0  0  0  0
    6.3273    0.1099   -1.8434 H   0  0  0  0  0  0  0  0  0  0  0  0
    7.8373   -1.3250   -0.4836 H   0  0  0  0  0  0  0  0  0  0  0  0
    6.9687   -2.4231    1.5781 H   0  0  0  0  0  0  0  0  0  0  0  0
    4.6116   -2.0854    2.2645 H   0  0  0  0  0  0  0  0  0  0  0  0
    1.5323    2.3677   -1.2423 H   0  0  0  0  0  0  0  0  0  0  0  0
    0.1051    2.6164   -2.2755 H   0  0  0  0  0  0  0  0  0  0  0  0
    1.2326    2.5680    1.2879 H   0  0  0  0  0  0  0  0  0  0  0  0
   -0.0133    3.7249    3.1106 H   0  0  0  0  0  0  0  0  0  0  0  0
   -2.2376    4.7405    2.6519 H   0  0  0  0  0  0  0  0  0  0  0  0
   -3.1912    4.6334    0.3529 H   0  0  0  0  0  0  0  0  0  0  0  0
   -1.9325    3.4906   -1.4599 H   0  0  0  0  0  0  0  0  0  0  0  0
  1  2  1  0  0  0  0
  1  5  1  0  0  0  0
  2  3  2  0  0  0  0
  2  6  1  0  0  0  0
  3  4  1  0  0  0  0
  4  5  1  0  0  0  0
  4 14  1  0  0  0  0
  4 32  1  1  0  0  0
  5 33  1  0  0  0  0
  5 34  1  0  0  0  0
  6 10  1  0  0  0  0
  6 12  1  6  0  0  0
  6 25  1  0  0  0  0
  7  8  1  0  0  0  0
  7 11  1  0  0  0  0
  7 35  1  0  0  0  0
  7 36  1  0  0  0  0
  8  9  1  0  0  0  0
  8 13  1  0  0  0  0
  8 37  1  1  0  0  0
  9 10  2  0  0  0  0
 10 11  1  0  0  0  0
 12 38  1  0  0  0  0
 12 39  1  0  0  0  0
 12 40  1  0  0  0  0
 13 20  2  0  0  0  0
 13 24  1  0  0  0  0
 14 15  2  0  0  0  0
 14 19  1  0  0  0  0
 15 16  1  0  0  0  0
 15 41  1  0  0  0  0
 16 17  2  0  0  0  0
 16 42  1  0  0  0  0
 17 18  1  0  0  0  0
 17 43  1  0  0  0  0
 18 19  2  0  0  0  0
 18 44  1  0  0  0  0
 19 45  1  0  0  0  0
 20 21  1  0  0  0  0
 20 46  1  0  0  0  0
 21 22  2  0  0  0  0
 21 47  1  0  0  0  0
 22 23  1  0  0  0  0
 22 48  1  0  0  0  0
 23 24  2  0  0  0  0
 23 49  1  0  0  0  0
 24 50  1  0  0  0  0
 25 26  1  0  0  0  0
 25 51  1  0  0  0  0
 25 52  1  0  0  0  0
 26 27  2  0  0  0  0
 26 31  1  0  0  0  0
 27 28  1  0  0  0  0
 27 53  1  0  0  0  0
 28 29  2  0  0  0  0
 28 54  1  0  0  0  0
 29 30  1  0  0  0  0
 29 55  1  0  0  0  0
 30 31  2  0  0  0  0
 30 56  1  0  0  0  0
 31 57  1  0  0  0  0
M  END
$$$$
