Title Card Required
 OpenBabel03192317413D

 48 52  0  0  1  0  0  0  0  0999 V2000
    0.4921    0.2308    0.4633 O   0  0  0  0  0  0  0  0  0  0  0  0
    0.3707   -0.5841   -0.6042 C   0  0  0  0  0  0  0  0  0  0  0  0
    1.4193   -0.9048   -1.2435 N   0  0  0  0  0  0  0  0  0  0  0  0
    2.5408   -0.2666   -0.5657 C   0  0  1  0  0  0  0  0  0  0  0  0
    1.8437    0.6840    0.4744 C   0  0  1  0  0  0  0  0  0  0  0  0
    1.9262    2.1421    0.0906 C   0  0  0  0  0  0  0  0  0  0  0  0
    3.1421    2.8146    0.2536 C   0  0  0  0  0  0  0  0  0  0  0  0
    3.2702    4.1444   -0.1374 C   0  0  0  0  0  0  0  0  0  0  0  0
    2.1800    4.8162   -0.6929 C   0  0  0  0  0  0  0  0  0  0  0  0
    0.9656    4.1516   -0.8484 C   0  0  0  0  0  0  0  0  0  0  0  0
    0.8349    2.8185   -0.4562 C   0  0  0  0  0  0  0  0  0  0  0  0
    3.4710   -1.2699    0.0840 C   0  0  0  0  0  0  0  0  0  0  0  0
    4.8427   -1.0108    0.1500 C   0  0  0  0  0  0  0  0  0  0  0  0
    5.7004   -1.8906    0.8091 C   0  0  0  0  0  0  0  0  0  0  0  0
    5.1924   -3.0428    1.4068 C   0  0  0  0  0  0  0  0  0  0  0  0
    3.8253   -3.3114    1.3382 C   0  0  0  0  0  0  0  0  0  0  0  0
    2.9696   -2.4306    0.6797 C   0  0  0  0  0  0  0  0  0  0  0  0
   -3.2481   -0.9180   -0.5342 C   0  0  0  0  0  0  0  0  0  0  0  0
   -3.5266   -1.8490   -1.5435 C   0  0  0  0  0  0  0  0  0  0  0  0
   -2.4654   -2.3830   -2.2674 C   0  0  0  0  0  0  0  0  0  0  0  0
   -1.1688   -1.9783   -1.9673 C   0  0  0  0  0  0  0  0  0  0  0  0
   -0.9997   -1.0435   -0.9407 C   0  0  0  0  0  0  0  0  0  0  0  0
   -2.0071   -0.5273   -0.2464 N   0  0  0  0  0  0  0  0  0  0  0  0
   -4.3528   -0.3212    0.2729 C   0  0  0  0  0  0  0  0  0  0  0  0
   -4.0627    0.5824    1.3029 C   0  0  0  0  0  0  0  0  0  0  0  0
   -5.1199    1.1128    2.0334 C   0  0  0  0  0  0  0  0  0  0  0  0
   -6.4204    0.7273    1.7147 C   0  0  0  0  0  0  0  0  0  0  0  0
   -6.6014   -0.1797    0.6699 C   0  0  0  0  0  0  0  0  0  0  0  0
   -5.5979   -0.6919   -0.0332 N   0  0  0  0  0  0  0  0  0  0  0  0
    3.1178    0.3296   -1.2885 H   0  0  0  0  0  0  0  0  0  0  0  0
    2.2467    0.5334    1.4861 H   0  0  0  0  0  0  0  0  0  0  0  0
    3.9942    2.2898    0.6953 H   0  0  0  0  0  0  0  0  0  0  0  0
    4.2222    4.6607   -0.0040 H   0  0  0  0  0  0  0  0  0  0  0  0
    2.2778    5.8586   -0.9996 H   0  0  0  0  0  0  0  0  0  0  0  0
    0.1086    4.6737   -1.2768 H   0  0  0  0  0  0  0  0  0  0  0  0
   -0.1194    2.2995   -0.5602 H   0  0  0  0  0  0  0  0  0  0  0  0
    5.2442   -0.1127   -0.3265 H   0  0  0  0  0  0  0  0  0  0  0  0
    6.7701   -1.6789    0.8495 H   0  0  0  0  0  0  0  0  0  0  0  0
    5.8620   -3.7344    1.9202 H   0  0  0  0  0  0  0  0  0  0  0  0
    3.4225   -4.2160    1.7965 H   0  0  0  0  0  0  0  0  0  0  0  0
    1.9018   -2.6494    0.6152 H   0  0  0  0  0  0  0  0  0  0  0  0
   -4.5636   -2.1246   -1.7291 H   0  0  0  0  0  0  0  0  0  0  0  0
   -2.6469   -3.1110   -3.0594 H   0  0  0  0  0  0  0  0  0  0  0  0
   -0.2916   -2.3536   -2.4938 H   0  0  0  0  0  0  0  0  0  0  0  0
   -3.0226    0.8388    1.5012 H   0  0  0  0  0  0  0  0  0  0  0  0
   -4.9319    1.8199    2.8432 H   0  0  0  0  0  0  0  0  0  0  0  0
   -7.2800    1.1173    2.2601 H   0  0  0  0  0  0  0  0  0  0  0  0
   -7.6080   -0.5058    0.3909 H   0  0  0  0  0  0  0  0  0  0  0  0
  1  2  1  0  0  0  0
  1  5  1  0  0  0  0
  2  3  2  0  0  0  0
  2 22  1  0  0  0  0
  3  4  1  0  0  0  0
  4  5  1  0  0  0  0
  4 12  1  0  0  0  0
  4 30  1  6  0  0  0
  5  6  1  0  0  0  0
  5 31  1  1  0  0  0
  6  7  2  0  0  0  0
  6 11  1  0  0  0  0
  7  8  1  0  0  0  0
  7 32  1  0  0  0  0
  8  9  2  0  0  0  0
  8 33  1  0  0  0  0
  9 10  1  0  0  0  0
  9 34  1  0  0  0  0
 10 11  2  0  0  0  0
 10 35  1  0  0  0  0
 11 36  1  0  0  0  0
 12 13  2  0  0  0  0
 12 17  1  0  0  0  0
 13 14  1  0  0  0  0
 13 37  1  0  0  0  0
 14 15  2  0  0  0  0
 14 38  1  0  0  0  0
 15 16  1  0  0  0  0
 15 39  1  0  0  0  0
 16 17  2  0  0  0  0
 16 40  1  0  0  0  0
 17 41  1  0  0  0  0
 18 19  2  0  0  0  0
 18 23  1  0  0  0  0
 18 24  1  0  0  0  0
 19 20  1  0  0  0  0
 19 42  1  0  0  0  0
 20 21  2  0  0  0  0
 20 43  1  0  0  0  0
 21 22  1  0  0  0  0
 21 44  1  0  0  0  0
 22 23  2  0  0  0  0
 24 25  2  0  0  0  0
 24 29  1  0  0  0  0
 25 26  1  0  0  0  0
 25 45  1  0  0  0  0
 26 27  2  0  0  0  0
 26 46  1  0  0  0  0
 27 28  1  0  0  0  0
 27 47  1  0  0  0  0
 28 29  2  0  0  0  0
 28 48  1  0  0  0  0
M  END
$$$$
