Title Card Required
 OpenBabel03192317473D

 38 39  0  0  1  0  0  0  0  0999 V2000
    1.1343    1.7218   -0.3595 O   0  0  0  0  0  0  0  0  0  0  0  0
    0.5864    0.4979   -0.4595 C   0  0  0  0  0  0  0  0  0  0  0  0
    1.3446   -0.4849   -0.7287 N   0  0  0  0  0  0  0  0  0  0  0  0
    2.7090    0.0361   -0.8002 C   0  0  1  0  0  0  0  0  0  0  0  0
    2.5107    1.5708   -0.7058 C   0  0  0  0  0  0  0  0  0  0  0  0
   -0.8796    0.3990   -0.2310 C   0  0  0  0  0  0  0  0  0  0  0  0
   -1.4722   -0.8573   -0.2975 C   0  0  0  0  0  0  0  0  0  0  0  0
   -2.8508   -0.9409   -0.0839 C   0  0  0  0  0  0  0  0  0  0  0  0
   -3.5552    0.2370    0.1860 C   0  0  0  0  0  0  0  0  0  0  0  0
   -2.8526    1.4493    0.2313 C   0  0  0  0  0  0  0  0  0  0  0  0
   -1.5406    1.5281    0.0254 N   0  0  0  0  0  0  0  0  0  0  0  0
   -3.5626    2.7435    0.5235 C   0  0  0  0  0  0  0  0  0  0  0  0
   -3.4086   -2.1602   -0.1539 O   0  0  0  0  0  0  0  0  0  0  0  0
   -4.7959   -2.2772    0.0392 C   0  0  0  0  0  0  0  0  0  0  0  0
    3.6065   -0.5853    0.2984 C   0  0  0  0  0  0  0  0  0  0  0  0
    3.6640   -2.0990    0.0744 C   0  0  0  0  0  0  0  0  0  0  0  0
    5.0181   -0.0033    0.1804 C   0  0  0  0  0  0  0  0  0  0  0  0
    3.0288   -0.2954    1.6862 C   0  0  0  0  0  0  0  0  0  0  0  0
    3.1495   -0.2418   -1.7722 H   0  0  0  0  0  0  0  0  0  0  0  0
    3.1197    2.0564    0.0683 H   0  0  0  0  0  0  0  0  0  0  0  0
    2.6873    2.0793   -1.6649 H   0  0  0  0  0  0  0  0  0  0  0  0
   -0.8793   -1.7446   -0.5139 H   0  0  0  0  0  0  0  0  0  0  0  0
   -4.6298    0.2350    0.3607 H   0  0  0  0  0  0  0  0  0  0  0  0
   -3.1559    3.1878    1.4428 H   0  0  0  0  0  0  0  0  0  0  0  0
   -3.3772    3.4589   -0.2894 H   0  0  0  0  0  0  0  0  0  0  0  0
   -4.6441    2.6033    0.6417 H   0  0  0  0  0  0  0  0  0  0  0  0
   -5.0926   -1.9372    1.0448 H   0  0  0  0  0  0  0  0  0  0  0  0
   -5.3563   -1.7026   -0.7161 H   0  0  0  0  0  0  0  0  0  0  0  0
   -5.0366   -3.3404   -0.0659 H   0  0  0  0  0  0  0  0  0  0  0  0
    4.1054   -2.3322   -0.9072 H   0  0  0  0  0  0  0  0  0  0  0  0
    4.2825   -2.5789    0.8482 H   0  0  0  0  0  0  0  0  0  0  0  0
    2.6551   -2.5312    0.1062 H   0  0  0  0  0  0  0  0  0  0  0  0
    5.0389    1.0782    0.3832 H   0  0  0  0  0  0  0  0  0  0  0  0
    5.6899   -0.4864    0.9057 H   0  0  0  0  0  0  0  0  0  0  0  0
    5.4320   -0.1714   -0.8263 H   0  0  0  0  0  0  0  0  0  0  0  0
    2.9222    0.7850    1.8708 H   0  0  0  0  0  0  0  0  0  0  0  0
    2.0384   -0.7598    1.7988 H   0  0  0  0  0  0  0  0  0  0  0  0
    3.6893   -0.7034    2.4661 H   0  0  0  0  0  0  0  0  0  0  0  0
  1  2  1  0  0  0  0
  1  5  1  0  0  0  0
  2  3  2  0  0  0  0
  2  6  1  0  0  0  0
  3  4  1  0  0  0  0
  4  5  1  0  0  0  0
  4 15  1  0  0  0  0
  4 19  1  6  0  0  0
  5 20  1  0  0  0  0
  5 21  1  0  0  0  0
  6  7  2  0  0  0  0
  6 11  1  0  0  0  0
  7  8  1  0  0  0  0
  7 22  1  0  0  0  0
  8  9  2  0  0  0  0
  8 13  1  0  0  0  0
  9 10  1  0  0  0  0
  9 23  1  0  0  0  0
 10 11  2  0  0  0  0
 10 12  1  0  0  0  0
 12 24  1  0  0  0  0
 12 25  1  0  0  0  0
 12 26  1  0  0  0  0
 13 14  1  0  0  0  0
 14 27  1  0  0  0  0
 14 28  1  0  0  0  0
 14 29  1  0  0  0  0
 15 16  1  0  0  0  0
 15 17  1  0  0  0  0
 15 18  1  0  0  0  0
 16 30  1  0  0  0  0
 16 31  1  0  0  0  0
 16 32  1  0  0  0  0
 17 33  1  0  0  0  0
 17 34  1  0  0  0  0
 17 35  1  0  0  0  0
 18 36  1  0  0  0  0
 18 37  1  0  0  0  0
 18 38  1  0  0  0  0
M  END
$$$$
