Title Card Required
 OpenBabel03192317503D

 39 42  0  0  1  0  0  0  0  0999 V2000
    0.5339   -1.1662   -0.4814 O   0  0  0  0  0  0  0  0  0  0  0  0
    1.2839   -0.0878   -0.7699 C   0  0  0  0  0  0  0  0  0  0  0  0
    0.7401    0.8864   -1.3776 N   0  0  0  0  0  0  0  0  0  0  0  0
   -0.6720    0.5527   -1.5255 C   0  0  1  0  0  0  0  0  0  0  0  0
   -0.7057   -0.9849   -1.1719 C   0  0  2  0  0  0  0  0  0  0  0  0
   -1.8682   -1.4593   -0.3494 C   0  0  0  0  0  0  0  0  0  0  0  0
   -1.8741   -1.2922    1.0380 C   0  0  0  0  0  0  0  0  0  0  0  0
   -3.0026   -1.6334    1.7781 C   0  0  0  0  0  0  0  0  0  0  0  0
   -4.1327   -2.1467    1.1398 C   0  0  0  0  0  0  0  0  0  0  0  0
   -4.1252   -2.3292   -0.2416 C   0  0  0  0  0  0  0  0  0  0  0  0
   -2.9934   -1.9894   -0.9824 C   0  0  0  0  0  0  0  0  0  0  0  0
   -1.5544    1.4104   -0.6384 C   0  0  0  0  0  0  0  0  0  0  0  0
   -2.9254    1.4859   -0.9062 C   0  0  0  0  0  0  0  0  0  0  0  0
   -3.7796    2.1751   -0.0507 C   0  0  0  0  0  0  0  0  0  0  0  0
   -3.2686    2.8121    1.0810 C   0  0  0  0  0  0  0  0  0  0  0  0
   -1.9016    2.7596    1.3425 C   0  0  0  0  0  0  0  0  0  0  0  0
   -1.0477    2.0625    0.4869 C   0  0  0  0  0  0  0  0  0  0  0  0
    2.6984   -0.1107   -0.3239 C   0  0  0  0  0  0  0  0  0  0  0  0
    3.4936    1.0191   -0.5531 C   0  0  0  0  0  0  0  0  0  0  0  0
    4.8181    0.9931   -0.1357 C   0  0  0  0  0  0  0  0  0  0  0  0
    5.2676   -0.1626    0.4884 C   0  0  0  0  0  0  0  0  0  0  0  0
    4.4070   -1.2422    0.6793 C   0  0  0  0  0  0  0  0  0  0  0  0
    3.1448   -1.2114    0.2768 N   0  0  0  0  0  0  0  0  0  0  0  0
    6.5238   -0.2505    0.9079 F   0  0  0  0  0  0  0  0  0  0  0  0
   -0.9882    0.6943   -2.5692 H   0  0  0  0  0  0  0  0  0  0  0  0
   -0.6502   -1.5666   -2.1068 H   0  0  0  0  0  0  0  0  0  0  0  0
   -0.9863   -0.8907    1.5289 H   0  0  0  0  0  0  0  0  0  0  0  0
   -3.0015   -1.4968    2.8605 H   0  0  0  0  0  0  0  0  0  0  0  0
   -5.0166   -2.4123    1.7218 H   0  0  0  0  0  0  0  0  0  0  0  0
   -5.0005   -2.7434   -0.7444 H   0  0  0  0  0  0  0  0  0  0  0  0
   -2.9862   -2.1350   -2.0657 H   0  0  0  0  0  0  0  0  0  0  0  0
   -3.3310    0.9827   -1.7875 H   0  0  0  0  0  0  0  0  0  0  0  0
   -4.8482    2.2162   -0.2671 H   0  0  0  0  0  0  0  0  0  0  0  0
   -3.9357    3.3542    1.7529 H   0  0  0  0  0  0  0  0  0  0  0  0
   -1.4930    3.2645    2.2195 H   0  0  0  0  0  0  0  0  0  0  0  0
    0.0237    2.0274    0.6902 H   0  0  0  0  0  0  0  0  0  0  0  0
    3.0547    1.8836   -1.0511 H   0  0  0  0  0  0  0  0  0  0  0  0
    5.4974    1.8336   -0.2810 H   0  0  0  0  0  0  0  0  0  0  0  0
    4.7770   -2.1453    1.1734 H   0  0  0  0  0  0  0  0  0  0  0  0
  1  2  1  0  0  0  0
  1  5  1  0  0  0  0
  2  3  2  0  0  0  0
  2 18  1  0  0  0  0
  3  4  1  0  0  0  0
  4  5  1  0  0  0  0
  4 12  1  0  0  0  0
  4 25  1  6  0  0  0
  5  6  1  0  0  0  0
  5 26  1  6  0  0  0
  6  7  2  0  0  0  0
  6 11  1  0  0  0  0
  7  8  1  0  0  0  0
  7 27  1  0  0  0  0
  8  9  2  0  0  0  0
  8 28  1  0  0  0  0
  9 10  1  0  0  0  0
  9 29  1  0  0  0  0
 10 11  2  0  0  0  0
 10 30  1  0  0  0  0
 11 31  1  0  0  0  0
 12 13  2  0  0  0  0
 12 17  1  0  0  0  0
 13 14  1  0  0  0  0
 13 32  1  0  0  0  0
 14 15  2  0  0  0  0
 14 33  1  0  0  0  0
 15 16  1  0  0  0  0
 15 34  1  0  0  0  0
 16 17  2  0  0  0  0
 16 35  1  0  0  0  0
 17 36  1  0  0  0  0
 18 19  2  0  0  0  0
 18 23  1  0  0  0  0
 19 20  1  0  0  0  0
 19 37  1  0  0  0  0
 20 21  2  0  0  0  0
 20 38  1  0  0  0  0
 21 22  1  0  0  0  0
 21 24  1  0  0  0  0
 22 23  2  0  0  0  0
 22 39  1  0  0  0  0
M  END
$$$$
