Title Card Required
 OpenBabel03192317423D

 33 36  0  0  1  0  0  0  0  0999 V2000
    0.2399   -1.3374   -0.6264 O   0  0  0  0  0  0  0  0  0  0  0  0
    0.5980   -0.0438   -0.7432 C   0  0  0  0  0  0  0  0  0  0  0  0
   -0.2424    0.7810   -1.2341 N   0  0  0  0  0  0  0  0  0  0  0  0
   -1.4628    0.0179   -1.4809 C   0  0  1  0  0  0  0  0  0  0  0  0
   -1.0708   -1.4640   -1.1897 C   0  0  2  0  0  0  0  0  0  0  0  0
   -2.0709   -2.0223   -0.1669 C   0  0  0  0  0  0  0  0  0  0  0  0
   -2.8530   -0.8145    0.2941 C   0  0  0  0  0  0  0  0  0  0  0  0
   -3.8034   -0.7348    1.3114 C   0  0  0  0  0  0  0  0  0  0  0  0
   -4.4248    0.4878    1.5649 C   0  0  0  0  0  0  0  0  0  0  0  0
   -4.0996    1.6212    0.8129 C   0  0  0  0  0  0  0  0  0  0  0  0
   -3.1491    1.5431   -0.2038 C   0  0  0  0  0  0  0  0  0  0  0  0
   -2.5383    0.3179   -0.4592 C   0  0  0  0  0  0  0  0  0  0  0  0
    1.9629    0.3207   -0.2819 C   0  0  0  0  0  0  0  0  0  0  0  0
    2.3540    1.6603   -0.3391 C   0  0  0  0  0  0  0  0  0  0  0  0
    3.6376    1.9770    0.0937 C   0  0  0  0  0  0  0  0  0  0  0  0
    4.4604    0.9571    0.5583 C   0  0  0  0  0  0  0  0  0  0  0  0
    3.9756   -0.3596    0.5795 C   0  0  0  0  0  0  0  0  0  0  0  0
    2.7469   -0.6599    0.1625 N   0  0  0  0  0  0  0  0  0  0  0  0
    4.8285   -1.4894    1.0911 C   0  0  0  0  0  0  0  0  0  0  0  0
   -1.8159    0.1917   -2.5087 H   0  0  0  0  0  0  0  0  0  0  0  0
   -0.9869   -2.0917   -2.0876 H   0  0  0  0  0  0  0  0  0  0  0  0
   -2.7336   -2.7680   -0.6326 H   0  0  0  0  0  0  0  0  0  0  0  0
   -1.5335   -2.5239    0.6506 H   0  0  0  0  0  0  0  0  0  0  0  0
   -4.0564   -1.6158    1.9049 H   0  0  0  0  0  0  0  0  0  0  0  0
   -5.1689    0.5630    2.3595 H   0  0  0  0  0  0  0  0  0  0  0  0
   -4.5904    2.5718    1.0274 H   0  0  0  0  0  0  0  0  0  0  0  0
   -2.8764    2.4249   -0.7865 H   0  0  0  0  0  0  0  0  0  0  0  0
    1.6538    2.4044   -0.7170 H   0  0  0  0  0  0  0  0  0  0  0  0
    3.9927    3.0085    0.0677 H   0  0  0  0  0  0  0  0  0  0  0  0
    5.4740    1.1670    0.9042 H   0  0  0  0  0  0  0  0  0  0  0  0
    5.8391   -1.4525    0.6610 H   0  0  0  0  0  0  0  0  0  0  0  0
    4.9297   -1.4313    2.1855 H   0  0  0  0  0  0  0  0  0  0  0  0
    4.3555   -2.4443    0.8367 H   0  0  0  0  0  0  0  0  0  0  0  0
  1  2  1  0  0  0  0
  1  5  1  0  0  0  0
  2  3  2  0  0  0  0
  2 13  1  0  0  0  0
  3  4  1  0  0  0  0
  4  5  1  0  0  0  0
  4 12  1  0  0  0  0
  4 20  1  6  0  0  0
  5  6  1  0  0  0  0
  5 21  1  6  0  0  0
  6  7  1  0  0  0  0
  6 22  1  0  0  0  0
  6 23  1  0  0  0  0
  7  8  2  0  0  0  0
  7 12  1  0  0  0  0
  8  9  1  0  0  0  0
  8 24  1  0  0  0  0
  9 10  2  0  0  0  0
  9 25  1  0  0  0  0
 10 11  1  0  0  0  0
 10 26  1  0  0  0  0
 11 12  2  0  0  0  0
 11 27  1  0  0  0  0
 13 14  2  0  0  0  0
 13 18  1  0  0  0  0
 14 15  1  0  0  0  0
 14 28  1  0  0  0  0
 15 16  2  0  0  0  0
 15 29  1  0  0  0  0
 16 17  1  0  0  0  0
 16 30  1  0  0  0  0
 17 18  2  0  0  0  0
 17 19  1  0  0  0  0
 19 31  1  0  0  0  0
 19 32  1  0  0  0  0
 19 33  1  0  0  0  0
M  END
$$$$
