Title Card Required
 OpenBabel03192317413D

 58 60  0  0  1  0  0  0  0  0999 V2000
   -0.4846    1.8173   -0.4505 C   0  0  2  0  0  0  0  0  0  0  0  0
   -1.7969    1.4933    0.2800 C   0  0  2  0  0  0  0  0  0  0  0  0
    0.6313    0.9329    0.0145 C   0  0  0  0  0  0  0  0  0  0  0  0
   -2.1944    0.0704    0.0494 C   0  0  0  0  0  0  0  0  0  0  0  0
    0.7304    0.8046    1.3655 O   0  0  0  0  0  0  0  0  0  0  0  0
    1.9256    0.0631    1.6171 C   0  0  0  0  0  0  0  0  0  0  0  0
    2.3941   -0.3724    0.2065 C   0  0  1  0  0  0  0  0  0  0  0  0
    1.4921    0.3392   -0.6990 N   0  0  0  0  0  0  0  0  0  0  0  0
   -1.7776   -0.6764   -0.8844 N   0  0  0  0  0  0  0  0  0  0  0  0
   -2.3310   -2.0080   -0.6471 C   0  0  2  0  0  0  0  0  0  0  0  0
   -3.4011   -1.7553    0.4423 C   0  0  0  0  0  0  0  0  0  0  0  0
   -3.0831   -0.4488    0.9302 O   0  0  0  0  0  0  0  0  0  0  0  0
    3.8794   -0.1060   -0.1177 C   0  0  0  0  0  0  0  0  0  0  0  0
   -1.2033   -2.9956   -0.2526 C   0  0  0  0  0  0  0  0  0  0  0  0
   -0.5642   -2.5805    1.0762 C   0  0  0  0  0  0  0  0  0  0  0  0
   -1.7940   -4.4028   -0.1334 C   0  0  0  0  0  0  0  0  0  0  0  0
    4.7507   -0.8266    0.9147 C   0  0  0  0  0  0  0  0  0  0  0  0
    4.1654   -0.6668   -1.5140 C   0  0  0  0  0  0  0  0  0  0  0  0
   -2.9253    2.4441   -0.1476 C   0  0  0  0  0  0  0  0  0  0  0  0
   -2.5287    3.9029    0.0638 C   0  0  0  0  0  0  0  0  0  0  0  0
   -1.2298    4.2277   -0.6720 C   0  0  0  0  0  0  0  0  0  0  0  0
   -0.1033    3.2912   -0.2405 C   0  0  0  0  0  0  0  0  0  0  0  0
    4.1744    1.3957   -0.1096 C   0  0  0  0  0  0  0  0  0  0  0  0
   -0.1352   -2.9725   -1.3510 C   0  0  0  0  0  0  0  0  0  0  0  0
   -0.6127    1.6094   -1.5227 H   0  0  0  0  0  0  0  0  0  0  0  0
   -1.6340    1.6059    1.3649 H   0  0  0  0  0  0  0  0  0  0  0  0
    1.6884   -0.7798    2.2796 H   0  0  0  0  0  0  0  0  0  0  0  0
    2.6428    0.7245    2.1271 H   0  0  0  0  0  0  0  0  0  0  0  0
    2.2252   -1.4567    0.0686 H   0  0  0  0  0  0  0  0  0  0  0  0
   -2.7908   -2.3875   -1.5736 H   0  0  0  0  0  0  0  0  0  0  0  0
   -4.4213   -1.7363    0.0306 H   0  0  0  0  0  0  0  0  0  0  0  0
   -3.3691   -2.4624    1.2812 H   0  0  0  0  0  0  0  0  0  0  0  0
   -1.2749   -2.6315    1.9155 H   0  0  0  0  0  0  0  0  0  0  0  0
    0.2784   -3.2484    1.3146 H   0  0  0  0  0  0  0  0  0  0  0  0
   -0.1802   -1.5510    1.0183 H   0  0  0  0  0  0  0  0  0  0  0  0
   -2.2372   -4.7257   -1.0882 H   0  0  0  0  0  0  0  0  0  0  0  0
   -1.0093   -5.1258    0.1358 H   0  0  0  0  0  0  0  0  0  0  0  0
   -2.5740   -4.4579    0.6421 H   0  0  0  0  0  0  0  0  0  0  0  0
    4.5228   -1.9040    0.9393 H   0  0  0  0  0  0  0  0  0  0  0  0
    5.8161   -0.7131    0.6639 H   0  0  0  0  0  0  0  0  0  0  0  0
    4.6052   -0.4215    1.9284 H   0  0  0  0  0  0  0  0  0  0  0  0
    3.5037   -0.1973   -2.2544 H   0  0  0  0  0  0  0  0  0  0  0  0
    5.2119   -0.4801   -1.7991 H   0  0  0  0  0  0  0  0  0  0  0  0
    3.9920   -1.7539   -1.5424 H   0  0  0  0  0  0  0  0  0  0  0  0
   -3.1417    2.2681   -1.2153 H   0  0  0  0  0  0  0  0  0  0  0  0
   -3.8375    2.1952    0.4143 H   0  0  0  0  0  0  0  0  0  0  0  0
   -3.3391    4.5671   -0.2714 H   0  0  0  0  0  0  0  0  0  0  0  0
   -2.3909    4.0873    1.1430 H   0  0  0  0  0  0  0  0  0  0  0  0
   -1.3922    4.1210   -1.7581 H   0  0  0  0  0  0  0  0  0  0  0  0
   -0.9382    5.2738   -0.4956 H   0  0  0  0  0  0  0  0  0  0  0  0
    0.1210    3.4461    0.8287 H   0  0  0  0  0  0  0  0  0  0  0  0
    0.8199    3.5074   -0.7990 H   0  0  0  0  0  0  0  0  0  0  0  0
    3.5472    1.9119   -0.8505 H   0  0  0  0  0  0  0  0  0  0  0  0
    3.9891    1.8501    0.8760 H   0  0  0  0  0  0  0  0  0  0  0  0
    5.2303    1.5758   -0.3620 H   0  0  0  0  0  0  0  0  0  0  0  0
   -0.5719   -3.2346   -2.3276 H   0  0  0  0  0  0  0  0  0  0  0  0
    0.3103   -1.9705   -1.4381 H   0  0  0  0  0  0  0  0  0  0  0  0
    0.6572   -3.7042   -1.1273 H   0  0  0  0  0  0  0  0  0  0  0  0
  1  2  1  0  0  0  0
  1  3  1  0  0  0  0
  1 22  1  0  0  0  0
  1 25  1  6  0  0  0
  2  4  1  0  0  0  0
  2 19  1  0  0  0  0
  2 26  1  1  0  0  0
  3  5  1  0  0  0  0
  3  8  2  0  0  0  0
  4  9  2  0  0  0  0
  4 12  1  0  0  0  0
  5  6  1  0  0  0  0
  6  7  1  0  0  0  0
  6 27  1  0  0  0  0
  6 28  1  0  0  0  0
  7  8  1  0  0  0  0
  7 13  1  0  0  0  0
  7 29  1  6  0  0  0
  9 10  1  0  0  0  0
 10 11  1  0  0  0  0
 10 14  1  0  0  0  0
 10 30  1  6  0  0  0
 11 12  1  0  0  0  0
 11 31  1  0  0  0  0
 11 32  1  0  0  0  0
 13 17  1  0  0  0  0
 13 18  1  0  0  0  0
 13 23  1  0  0  0  0
 14 15  1  0  0  0  0
 14 16  1  0  0  0  0
 14 24  1  0  0  0  0
 15 33  1  0  0  0  0
 15 34  1  0  0  0  0
 15 35  1  0  0  0  0
 16 36  1  0  0  0  0
 16 37  1  0  0  0  0
 16 38  1  0  0  0  0
 17 39  1  0  0  0  0
 17 40  1  0  0  0  0
 17 41  1  0  0  0  0
 18 42  1  0  0  0  0
 18 43  1  0  0  0  0
 18 44  1  0  0  0  0
 19 20  1  0  0  0  0
 19 45  1  0  0  0  0
 19 46  1  0  0  0  0
 20 21  1  0  0  0  0
 20 47  1  0  0  0  0
 20 48  1  0  0  0  0
 21 22  1  0  0  0  0
 21 49  1  0  0  0  0
 21 50  1  0  0  0  0
 22 51  1  0  0  0  0
 22 52  1  0  0  0  0
 23 53  1  0  0  0  0
 23 54  1  0  0  0  0
 23 55  1  0  0  0  0
 24 56  1  0  0  0  0
 24 57  1  0  0  0  0
 24 58  1  0  0  0  0
M  END
$$$$
