Title Card Required
 OpenBabel03192317413D

 67 72  0  0  1  0  0  0  0  0999 V2000
   -1.7301   -2.5334    1.0336 C   0  0  0  0  0  0  0  0  0  0  0  0
   -2.1500   -3.5952    1.8344 C   0  0  0  0  0  0  0  0  0  0  0  0
   -3.5106   -3.8106    2.0494 C   0  0  0  0  0  0  0  0  0  0  0  0
   -4.4489   -2.9574    1.4679 C   0  0  0  0  0  0  0  0  0  0  0  0
   -4.0293   -1.8899    0.6754 C   0  0  0  0  0  0  0  0  0  0  0  0
   -2.6651   -1.6675    0.4478 C   0  0  0  0  0  0  0  0  0  0  0  0
   -3.6734    1.7515   -1.4999 C   0  0  0  0  0  0  0  0  0  0  0  0
   -4.6858    2.2203   -2.3372 C   0  0  0  0  0  0  0  0  0  0  0  0
   -5.4082    1.3318   -3.1317 C   0  0  0  0  0  0  0  0  0  0  0  0
   -5.1096   -0.0306   -3.0903 C   0  0  0  0  0  0  0  0  0  0  0  0
   -4.0985   -0.5002   -2.2548 C   0  0  0  0  0  0  0  0  0  0  0  0
   -3.3781    0.3846   -1.4400 C   0  0  0  0  0  0  0  0  0  0  0  0
   -1.9437   -0.2327   -0.4759 P   0  0  0  0  0  0  0  0  0  0  0  0
   -2.9484    1.1724    1.6796 C   0  0  0  0  0  0  0  0  0  0  0  0
   -2.9284    2.5790    2.2692 C   0  0  0  0  0  0  0  0  0  0  0  0
   -1.5887    2.8635    2.9424 C   0  0  0  0  0  0  0  0  0  0  0  0
   -0.4400    2.5913    1.9766 C   0  0  0  0  0  0  0  0  0  0  0  0
   -0.5351    1.1731    1.4156 C   0  0  1  0  0  0  0  0  0  0  0  0
   -1.8337    0.9757    0.7567 N   0  0  0  0  0  0  0  0  0  0  0  0
    4.6486    1.0889   -1.4484 C   0  0  0  0  0  0  0  0  0  0  0  0
    5.9490    1.3659   -1.0381 C   0  0  0  0  0  0  0  0  0  0  0  0
    6.1762    1.9785    0.1952 C   0  0  0  0  0  0  0  0  0  0  0  0
    5.0951    2.3156    1.0062 C   0  0  0  0  0  0  0  0  0  0  0  0
    3.7919    2.0303    0.5957 C   0  0  0  0  0  0  0  0  0  0  0  0
    3.5581    1.4052   -0.6301 C   0  0  0  0  0  0  0  0  0  0  0  0
    3.6676   -1.5494    0.6291 C   0  0  0  0  0  0  0  0  0  0  0  0
    4.7976   -2.3572    0.7236 C   0  0  0  0  0  0  0  0  0  0  0  0
    5.2367   -3.0845   -0.3837 C   0  0  0  0  0  0  0  0  0  0  0  0
    4.5326   -3.0105   -1.5840 C   0  0  0  0  0  0  0  0  0  0  0  0
    3.3980   -2.2056   -1.6768 C   0  0  0  0  0  0  0  0  0  0  0  0
    2.9655   -1.4624   -0.5766 C   0  0  0  0  0  0  0  0  0  0  0  0
    1.8167   -0.5130   -0.7380 C   0  0  2  0  0  0  0  0  0  0  0  0
    2.1662    0.9867   -1.0600 C   0  0  1  0  0  0  0  0  0  0  0  0
    1.1204    1.7152   -0.3433 N   0  0  0  0  0  0  0  0  0  0  0  0
    0.5891    0.8924    0.4575 C   0  0  0  0  0  0  0  0  0  0  0  0
    1.0512   -0.3843    0.4621 O   0  0  0  0  0  0  0  0  0  0  0  0
   -0.6629   -2.3621    0.8635 H   0  0  0  0  0  0  0  0  0  0  0  0
   -1.4118   -4.2612    2.2842 H   0  0  0  0  0  0  0  0  0  0  0  0
   -3.8407   -4.6457    2.6696 H   0  0  0  0  0  0  0  0  0  0  0  0
   -5.5147   -3.1217    1.6359 H   0  0  0  0  0  0  0  0  0  0  0  0
   -4.7723   -1.2248    0.2287 H   0  0  0  0  0  0  0  0  0  0  0  0
   -3.0946    2.4448   -0.8860 H   0  0  0  0  0  0  0  0  0  0  0  0
   -4.9077    3.2883   -2.3704 H   0  0  0  0  0  0  0  0  0  0  0  0
   -6.1991    1.6996   -3.7871 H   0  0  0  0  0  0  0  0  0  0  0  0
   -5.6664   -0.7320   -3.7139 H   0  0  0  0  0  0  0  0  0  0  0  0
   -3.8716   -1.5696   -2.2304 H   0  0  0  0  0  0  0  0  0  0  0  0
   -2.9093    0.4216    2.4970 H   0  0  0  0  0  0  0  0  0  0  0  0
   -3.8887    1.0035    1.1351 H   0  0  0  0  0  0  0  0  0  0  0  0
   -3.7573    2.6888    2.9845 H   0  0  0  0  0  0  0  0  0  0  0  0
   -3.0951    3.3064    1.4579 H   0  0  0  0  0  0  0  0  0  0  0  0
   -1.5467    3.9000    3.3076 H   0  0  0  0  0  0  0  0  0  0  0  0
   -1.4831    2.2094    3.8254 H   0  0  0  0  0  0  0  0  0  0  0  0
   -0.4643    3.2866    1.1237 H   0  0  0  0  0  0  0  0  0  0  0  0
    0.5330    2.7172    2.4755 H   0  0  0  0  0  0  0  0  0  0  0  0
   -0.4255    0.4465    2.2485 H   0  0  0  0  0  0  0  0  0  0  0  0
    4.4755    0.6034   -2.4120 H   0  0  0  0  0  0  0  0  0  0  0  0
    6.7894    1.1044   -1.6830 H   0  0  0  0  0  0  0  0  0  0  0  0
    7.1949    2.1982    0.5186 H   0  0  0  0  0  0  0  0  0  0  0  0
    5.2644    2.8060    1.9664 H   0  0  0  0  0  0  0  0  0  0  0  0
    2.9443    2.3025    1.2262 H   0  0  0  0  0  0  0  0  0  0  0  0
    3.3224   -0.9740    1.4895 H   0  0  0  0  0  0  0  0  0  0  0  0
    5.3428   -2.4170    1.6668 H   0  0  0  0  0  0  0  0  0  0  0  0
    6.1244   -3.7145   -0.3091 H   0  0  0  0  0  0  0  0  0  0  0  0
    4.8626   -3.5865   -2.4500 H   0  0  0  0  0  0  0  0  0  0  0  0
    2.8419   -2.1511   -2.6162 H   0  0  0  0  0  0  0  0  0  0  0  0
    1.1249   -0.8787   -1.5163 H   0  0  0  0  0  0  0  0  0  0  0  0
    2.0663    1.1578   -2.1411 H   0  0  0  0  0  0  0  0  0  0  0  0
  1  2  2  0  0  0  0
  1  6  1  0  0  0  0
  1 37  1  0  0  0  0
  2  3  1  0  0  0  0
  2 38  1  0  0  0  0
  3  4  2  0  0  0  0
  3 39  1  0  0  0  0
  4  5  1  0  0  0  0
  4 40  1  0  0  0  0
  5  6  2  0  0  0  0
  5 41  1  0  0  0  0
  6 13  1  0  0  0  0
  7  8  2  0  0  0  0
  7 12  1  0  0  0  0
  7 42  1  0  0  0  0
  8  9  1  0  0  0  0
  8 43  1  0  0  0  0
  9 10  2  0  0  0  0
  9 44  1  0  0  0  0
 10 11  1  0  0  0  0
 10 45  1  0  0  0  0
 11 12  2  0  0  0  0
 11 46  1  0  0  0  0
 12 13  1  0  0  0  0
 13 19  1  0  0  0  0
 14 15  1  0  0  0  0
 14 19  1  0  0  0  0
 14 47  1  0  0  0  0
 14 48  1  0  0  0  0
 15 16  1  0  0  0  0
 15 49  1  0  0  0  0
 15 50  1  0  0  0  0
 16 17  1  0  0  0  0
 16 51  1  0  0  0  0
 16 52  1  0  0  0  0
 17 18  1  0  0  0  0
 17 53  1  0  0  0  0
 17 54  1  0  0  0  0
 18 19  1  0  0  0  0
 18 35  1  0  0  0  0
 18 55  1  1  0  0  0
 20 21  2  0  0  0  0
 20 25  1  0  0  0  0
 20 56  1  0  0  0  0
 21 22  1  0  0  0  0
 21 57  1  0  0  0  0
 22 23  2  0  0  0  0
 22 58  1  0  0  0  0
 23 24  1  0  0  0  0
 23 59  1  0  0  0  0
 24 25  2  0  0  0  0
 24 60  1  0  0  0  0
 25 33  1  0  0  0  0
 26 27  2  0  0  0  0
 26 31  1  0  0  0  0
 26 61  1  0  0  0  0
 27 28  1  0  0  0  0
 27 62  1  0  0  0  0
 28 29  2  0  0  0  0
 28 63  1  0  0  0  0
 29 30  1  0  0  0  0
 29 64  1  0  0  0  0
 30 31  2  0  0  0  0
 30 65  1  0  0  0  0
 31 32  1  0  0  0  0
 32 33  1  0  0  0  0
 32 36  1  0  0  0  0
 32 66  1  6  0  0  0
 33 34  1  0  0  0  0
 33 67  1  6  0  0  0
 34 35  2  0  0  0  0
 35 36  1  0  0  0  0
M  END
$$$$
