Title Card Required
 OpenBabel03192317463D

 29 32  0  0  1  0  0  0  0  0999 V2000
   -0.4582   -1.5706   -0.1703 O   0  0  0  0  0  0  0  0  0  0  0  0
   -0.9347   -0.3692   -0.5444 C   0  0  0  0  0  0  0  0  0  0  0  0
   -0.2099    0.3825   -1.2669 N   0  0  0  0  0  0  0  0  0  0  0  0
    1.0605   -0.3212   -1.4304 C   0  0  2  0  0  0  0  0  0  0  0  0
    0.8173   -1.7296   -0.8073 C   0  0  1  0  0  0  0  0  0  0  0  0
    1.9295   -1.9875    0.2176 C   0  0  0  0  0  0  0  0  0  0  0  0
    2.6130   -0.6490    0.3742 C   0  0  0  0  0  0  0  0  0  0  0  0
    3.6010   -0.2810    1.2865 C   0  0  0  0  0  0  0  0  0  0  0  0
    4.1109    1.0166    1.2469 C   0  0  0  0  0  0  0  0  0  0  0  0
    3.6382    1.9396    0.3087 C   0  0  0  0  0  0  0  0  0  0  0  0
    2.6504    1.5733   -0.6040 C   0  0  0  0  0  0  0  0  0  0  0  0
    2.1519    0.2736   -0.5665 C   0  0  0  0  0  0  0  0  0  0  0  0
   -2.2943   -0.0094   -0.0771 C   0  0  0  0  0  0  0  0  0  0  0  0
   -2.8190    1.2497   -0.4068 C   0  0  0  0  0  0  0  0  0  0  0  0
   -2.9826   -0.8917    0.6400 N   0  0  0  0  0  0  0  0  0  0  0  0
   -4.0337    1.6163   -0.0197 N   0  0  0  0  0  0  0  0  0  0  0  0
   -4.7234    0.7318    0.6971 C   0  0  0  0  0  0  0  0  0  0  0  0
   -4.1976   -0.5190    1.0274 C   0  0  0  0  0  0  0  0  0  0  0  0
    1.3445   -0.3452   -2.4931 H   0  0  0  0  0  0  0  0  0  0  0  0
    0.7182   -2.5380   -1.5444 H   0  0  0  0  0  0  0  0  0  0  0  0
    1.5010   -2.3662    1.1564 H   0  0  0  0  0  0  0  0  0  0  0  0
    2.6322   -2.7485   -0.1556 H   0  0  0  0  0  0  0  0  0  0  0  0
    3.9694   -0.9960    2.0249 H   0  0  0  0  0  0  0  0  0  0  0  0
    4.8831    1.3166    1.9572 H   0  0  0  0  0  0  0  0  0  0  0  0
    4.0417    2.9532    0.2961 H   0  0  0  0  0  0  0  0  0  0  0  0
    2.2625    2.2904   -1.3297 H   0  0  0  0  0  0  0  0  0  0  0  0
   -2.2199    1.9480   -0.9959 H   0  0  0  0  0  0  0  0  0  0  0  0
   -5.7268    1.0196    1.0232 H   0  0  0  0  0  0  0  0  0  0  0  0
   -4.7788   -1.2317    1.6187 H   0  0  0  0  0  0  0  0  0  0  0  0
  1  2  1  0  0  0  0
  1  5  1  0  0  0  0
  2  3  2  0  0  0  0
  2 13  1  0  0  0  0
  3  4  1  0  0  0  0
  4  5  1  0  0  0  0
  4 12  1  0  0  0  0
  4 19  1  6  0  0  0
  5  6  1  0  0  0  0
  5 20  1  6  0  0  0
  6  7  1  0  0  0  0
  6 21  1  0  0  0  0
  6 22  1  0  0  0  0
  7  8  2  0  0  0  0
  7 12  1  0  0  0  0
  8  9  1  0  0  0  0
  8 23  1  0  0  0  0
  9 10  2  0  0  0  0
  9 24  1  0  0  0  0
 10 11  1  0  0  0  0
 10 25  1  0  0  0  0
 11 12  2  0  0  0  0
 11 26  1  0  0  0  0
 13 14  2  0  0  0  0
 13 15  1  0  0  0  0
 14 16  1  0  0  0  0
 14 27  1  0  0  0  0
 15 18  2  0  0  0  0
 16 17  2  0  0  0  0
 17 18  1  0  0  0  0
 17 28  1  0  0  0  0
 18 29  1  0  0  0  0
M  END
$$$$
