Title Card Required
 OpenBabel03192317423D

 28 30  0  0  1  0  0  0  0  0999 V2000
   -0.7337    1.7644    0.2784 O   0  0  0  0  0  0  0  0  0  0  0  0
   -0.9841    0.5418   -0.2301 C   0  0  0  0  0  0  0  0  0  0  0  0
   -0.0512   -0.0767   -0.8219 N   0  0  0  0  0  0  0  0  0  0  0  0
    1.1141    0.8023   -0.7959 C   0  0  1  0  0  0  0  0  0  0  0  0
    0.6665    1.9835    0.1093 C   0  0  0  0  0  0  0  0  0  0  0  0
   -2.3755    0.0322   -0.0519 C   0  0  0  0  0  0  0  0  0  0  0  0
   -3.2603    0.8711    0.4799 N   0  0  0  0  0  0  0  0  0  0  0  0
   -4.4987    0.4124    0.6305 C   0  0  0  0  0  0  0  0  0  0  0  0
   -4.8593   -0.8795    0.2580 C   0  0  0  0  0  0  0  0  0  0  0  0
   -3.8457   -1.6686   -0.2849 C   0  0  0  0  0  0  0  0  0  0  0  0
   -2.6075   -1.2191   -0.4427 N   0  0  0  0  0  0  0  0  0  0  0  0
    2.3750    0.1116   -0.3230 C   0  0  0  0  0  0  0  0  0  0  0  0
    3.5499    0.8562   -0.1681 C   0  0  0  0  0  0  0  0  0  0  0  0
    4.7216    0.2475    0.2744 C   0  0  0  0  0  0  0  0  0  0  0  0
    4.7318   -1.1175    0.5636 C   0  0  0  0  0  0  0  0  0  0  0  0
    3.5658   -1.8637    0.4068 C   0  0  0  0  0  0  0  0  0  0  0  0
    2.3909   -1.2543   -0.0349 C   0  0  0  0  0  0  0  0  0  0  0  0
    1.2899    1.1523   -1.8288 H   0  0  0  0  0  0  0  0  0  0  0  0
    1.1540    1.9505    1.0958 H   0  0  0  0  0  0  0  0  0  0  0  0
    0.8182    2.9732   -0.3392 H   0  0  0  0  0  0  0  0  0  0  0  0
   -5.2293    1.1017    1.0648 H   0  0  0  0  0  0  0  0  0  0  0  0
   -5.8745   -1.2540    0.3838 H   0  0  0  0  0  0  0  0  0  0  0  0
   -4.0400   -2.6980   -0.6022 H   0  0  0  0  0  0  0  0  0  0  0  0
    3.5496    1.9253   -0.3987 H   0  0  0  0  0  0  0  0  0  0  0  0
    5.6311    0.8392    0.3913 H   0  0  0  0  0  0  0  0  0  0  0  0
    5.6487   -1.5968    0.9100 H   0  0  0  0  0  0  0  0  0  0  0  0
    3.5682   -2.9321    0.6295 H   0  0  0  0  0  0  0  0  0  0  0  0
    1.4717   -1.8267   -0.1639 H   0  0  0  0  0  0  0  0  0  0  0  0
  1  2  1  0  0  0  0
  1  5  1  0  0  0  0
  2  3  2  0  0  0  0
  2  6  1  0  0  0  0
  3  4  1  0  0  0  0
  4  5  1  0  0  0  0
  4 12  1  0  0  0  0
  4 18  1  6  0  0  0
  5 19  1  0  0  0  0
  5 20  1  0  0  0  0
  6  7  2  0  0  0  0
  6 11  1  0  0  0  0
  7  8  1  0  0  0  0
  8  9  2  0  0  0  0
  8 21  1  0  0  0  0
  9 10  1  0  0  0  0
  9 22  1  0  0  0  0
 10 11  2  0  0  0  0
 10 23  1  0  0  0  0
 12 13  2  0  0  0  0
 12 17  1  0  0  0  0
 13 14  1  0  0  0  0
 13 24  1  0  0  0  0
 14 15  2  0  0  0  0
 14 25  1  0  0  0  0
 15 16  1  0  0  0  0
 15 26  1  0  0  0  0
 16 17  2  0  0  0  0
 16 27  1  0  0  0  0
 17 28  1  0  0  0  0
M  END
$$$$
