Title Card Required
 OpenBabel03192317423D

 61 65  0  0  1  0  0  0  0  0999 V2000
   -0.7135    3.2552   -0.1319 C   0  0  0  0  0  0  0  0  0  0  0  0
    0.7150    3.2549    0.1318 C   0  0  0  0  0  0  0  0  0  0  0  0
    1.0749    1.8963    0.1993 C   0  0  0  0  0  0  0  0  0  0  0  0
    0.0003    1.0914    0.0001 O   0  0  0  0  0  0  0  0  0  0  0  0
   -1.0740    1.8967   -0.1992 C   0  0  0  0  0  0  0  0  0  0  0  0
    1.6816    4.2456    0.3099 C   0  0  0  0  0  0  0  0  0  0  0  0
    2.9955    3.8532    0.5535 C   0  0  0  0  0  0  0  0  0  0  0  0
    3.3377    2.5000    0.6201 C   0  0  0  0  0  0  0  0  0  0  0  0
    2.3887    1.4857    0.4460 C   0  0  0  0  0  0  0  0  0  0  0  0
   -2.3880    1.4866   -0.4458 C   0  0  0  0  0  0  0  0  0  0  0  0
   -3.3366    2.5013   -0.6199 C   0  0  0  0  0  0  0  0  0  0  0  0
   -2.9938    3.8544   -0.5534 C   0  0  0  0  0  0  0  0  0  0  0  0
   -1.6798    4.2463   -0.3101 C   0  0  0  0  0  0  0  0  0  0  0  0
    2.8166    0.0780    0.5401 C   0  0  0  0  0  0  0  0  0  0  0  0
   -2.8165    0.0791   -0.5397 C   0  0  0  0  0  0  0  0  0  0  0  0
    1.8690   -0.8612    0.3532 O   0  0  0  0  0  0  0  0  0  0  0  0
    2.5012   -2.1198    0.5868 C   0  0  0  0  0  0  0  0  0  0  0  0
    4.0040   -1.7645    0.7237 C   0  0  2  0  0  0  0  0  0  0  0  0
    4.0047   -0.3040    0.7786 N   0  0  0  0  0  0  0  0  0  0  0  0
   -4.0050   -0.3024   -0.7766 N   0  0  0  0  0  0  0  0  0  0  0  0
   -4.0047   -1.7630   -0.7231 C   0  0  1  0  0  0  0  0  0  0  0  0
   -2.5020   -2.1189   -0.5864 C   0  0  0  0  0  0  0  0  0  0  0  0
   -1.8689   -0.8604   -0.3547 O   0  0  0  0  0  0  0  0  0  0  0  0
    4.9148   -2.2883   -0.4137 C   0  0  0  0  0  0  0  0  0  0  0  0
   -4.9159   -2.2877    0.4136 C   0  0  0  0  0  0  0  0  0  0  0  0
    4.4483   -1.7428   -1.7658 C   0  0  0  0  0  0  0  0  0  0  0  0
    6.3459   -1.8176   -0.1397 C   0  0  0  0  0  0  0  0  0  0  0  0
   -6.3470   -1.8169    0.1393 C   0  0  0  0  0  0  0  0  0  0  0  0
   -4.8799   -3.8187    0.4165 C   0  0  0  0  0  0  0  0  0  0  0  0
   -4.4501   -1.7433    1.7663 C   0  0  0  0  0  0  0  0  0  0  0  0
    4.8790   -3.8193   -0.4180 C   0  0  0  0  0  0  0  0  0  0  0  0
    1.4126    5.3018    0.2598 H   0  0  0  0  0  0  0  0  0  0  0  0
    3.7695    4.6076    0.6963 H   0  0  0  0  0  0  0  0  0  0  0  0
    4.3651    2.1911    0.8161 H   0  0  0  0  0  0  0  0  0  0  0  0
   -4.3642    2.1928   -0.8157 H   0  0  0  0  0  0  0  0  0  0  0  0
   -3.7675    4.6091   -0.6963 H   0  0  0  0  0  0  0  0  0  0  0  0
   -1.4103    5.3023   -0.2601 H   0  0  0  0  0  0  0  0  0  0  0  0
    2.2709   -2.7856   -0.2554 H   0  0  0  0  0  0  0  0  0  0  0  0
    2.0830   -2.5543    1.5062 H   0  0  0  0  0  0  0  0  0  0  0  0
    4.4117   -2.1586    1.6697 H   0  0  0  0  0  0  0  0  0  0  0  0
   -4.4124   -2.1559   -1.6696 H   0  0  0  0  0  0  0  0  0  0  0  0
   -2.2718   -2.7838    0.2566 H   0  0  0  0  0  0  0  0  0  0  0  0
   -2.0844   -2.5549   -1.5054 H   0  0  0  0  0  0  0  0  0  0  0  0
    4.5153   -0.6455   -1.7842 H   0  0  0  0  0  0  0  0  0  0  0  0
    5.0813   -2.1383   -2.5743 H   0  0  0  0  0  0  0  0  0  0  0  0
    3.4074   -2.0259   -1.9882 H   0  0  0  0  0  0  0  0  0  0  0  0
    6.7139   -2.2178    0.8181 H   0  0  0  0  0  0  0  0  0  0  0  0
    7.0235   -2.1634   -0.9351 H   0  0  0  0  0  0  0  0  0  0  0  0
    6.3872   -0.7216   -0.0887 H   0  0  0  0  0  0  0  0  0  0  0  0
   -6.7145   -2.2164   -0.8190 H   0  0  0  0  0  0  0  0  0  0  0  0
   -7.0249   -2.1634    0.9341 H   0  0  0  0  0  0  0  0  0  0  0  0
   -6.3883   -0.7209    0.0891 H   0  0  0  0  0  0  0  0  0  0  0  0
   -3.8793   -4.2099    0.6558 H   0  0  0  0  0  0  0  0  0  0  0  0
   -5.5766   -4.2139    1.1710 H   0  0  0  0  0  0  0  0  0  0  0  0
   -5.1807   -4.2220   -0.5633 H   0  0  0  0  0  0  0  0  0  0  0  0
   -3.4094   -2.0266    1.9891 H   0  0  0  0  0  0  0  0  0  0  0  0
   -4.5169   -0.6459    1.7853 H   0  0  0  0  0  0  0  0  0  0  0  0
   -5.0835   -2.1392    2.5741 H   0  0  0  0  0  0  0  0  0  0  0  0
    5.1802   -4.2234    0.5615 H   0  0  0  0  0  0  0  0  0  0  0  0
    3.8783   -4.2104   -0.6572 H   0  0  0  0  0  0  0  0  0  0  0  0
    5.5755   -4.2138   -1.1730 H   0  0  0  0  0  0  0  0  0  0  0  0
  1  2  1  0  0  0  0
  1  5  2  0  0  0  0
  1 13  1  0  0  0  0
  2  3  2  0  0  0  0
  2  6  1  0  0  0  0
  3  4  1  0  0  0  0
  3  9  1  0  0  0  0
  4  5  1  0  0  0  0
  5 10  1  0  0  0  0
  6  7  2  0  0  0  0
  6 32  1  0  0  0  0
  7  8  1  0  0  0  0
  7 33  1  0  0  0  0
  8  9  2  0  0  0  0
  8 34  1  0  0  0  0
  9 14  1  0  0  0  0
 10 11  2  0  0  0  0
 10 15  1  0  0  0  0
 11 12  1  0  0  0  0
 11 35  1  0  0  0  0
 12 13  2  0  0  0  0
 12 36  1  0  0  0  0
 13 37  1  0  0  0  0
 14 16  1  0  0  0  0
 14 19  2  0  0  0  0
 15 20  2  0  0  0  0
 15 23  1  0  0  0  0
 16 17  1  0  0  0  0
 17 18  1  0  0  0  0
 17 38  1  0  0  0  0
 17 39  1  0  0  0  0
 18 19  1  0  0  0  0
 18 24  1  0  0  0  0
 18 40  1  1  0  0  0
 20 21  1  0  0  0  0
 21 22  1  0  0  0  0
 21 25  1  0  0  0  0
 21 41  1  6  0  0  0
 22 23  1  0  0  0  0
 22 42  1  0  0  0  0
 22 43  1  0  0  0  0
 24 26  1  0  0  0  0
 24 27  1  0  0  0  0
 24 31  1  0  0  0  0
 25 28  1  0  0  0  0
 25 29  1  0  0  0  0
 25 30  1  0  0  0  0
 26 44  1  0  0  0  0
 26 45  1  0  0  0  0
 26 46  1  0  0  0  0
 27 47  1  0  0  0  0
 27 48  1  0  0  0  0
 27 49  1  0  0  0  0
 28 50  1  0  0  0  0
 28 51  1  0  0  0  0
 28 52  1  0  0  0  0
 29 53  1  0  0  0  0
 29 54  1  0  0  0  0
 29 55  1  0  0  0  0
 30 56  1  0  0  0  0
 30 57  1  0  0  0  0
 30 58  1  0  0  0  0
 31 59  1  0  0  0  0
 31 60  1  0  0  0  0
 31 61  1  0  0  0  0
M  END
$$$$
