Title Card Required
 OpenBabel03192317473D

 44 48  0  0  1  0  0  0  0  0999 V2000
   -0.0163    0.6924    0.4518 O   0  0  0  0  0  0  0  0  0  0  0  0
    0.4861   -0.3508   -0.2316 C   0  0  0  0  0  0  0  0  0  0  0  0
   -0.3197   -1.1372   -0.8206 N   0  0  0  0  0  0  0  0  0  0  0  0
   -1.6555   -0.5852   -0.6205 C   0  0  2  0  0  0  0  0  0  0  0  0
   -1.4345    0.5102    0.4741 C   0  0  2  0  0  0  0  0  0  0  0  0
   -2.1664    1.7985    0.2254 C   0  0  0  0  0  0  0  0  0  0  0  0
   -1.5824    2.8206   -0.5272 C   0  0  0  0  0  0  0  0  0  0  0  0
   -2.3014    3.9817   -0.8044 C   0  0  0  0  0  0  0  0  0  0  0  0
   -3.6073    4.1287   -0.3368 C   0  0  0  0  0  0  0  0  0  0  0  0
   -4.1903    3.1128    0.4197 C   0  0  0  0  0  0  0  0  0  0  0  0
   -3.4704    1.9536    0.7047 C   0  0  0  0  0  0  0  0  0  0  0  0
   -2.7055   -1.5969   -0.2357 C   0  0  0  0  0  0  0  0  0  0  0  0
   -2.3633   -2.7592    0.4603 C   0  0  0  0  0  0  0  0  0  0  0  0
   -3.3537   -3.6508    0.8687 C   0  0  0  0  0  0  0  0  0  0  0  0
   -4.6946   -3.3876    0.5887 C   0  0  0  0  0  0  0  0  0  0  0  0
   -5.0413   -2.2316   -0.1097 C   0  0  0  0  0  0  0  0  0  0  0  0
   -4.0502   -1.3433   -0.5238 C   0  0  0  0  0  0  0  0  0  0  0  0
    2.6773    0.4114    0.3591 N   0  0  0  0  0  0  0  0  0  0  0  0
    1.9660   -0.4888   -0.2671 C   0  0  0  0  0  0  0  0  0  0  0  0
    2.5099   -1.5903   -0.9901 C   0  0  0  0  0  0  0  0  0  0  0  0
    3.8704   -1.7213   -1.0309 C   0  0  0  0  0  0  0  0  0  0  0  0
    4.6774   -0.7633   -0.3630 C   0  0  0  0  0  0  0  0  0  0  0  0
    6.0942   -0.8067   -0.3462 C   0  0  0  0  0  0  0  0  0  0  0  0
    6.7771    0.1711    0.3283 C   0  0  0  0  0  0  0  0  0  0  0  0
    6.0314    1.1896    0.9831 C   0  0  0  0  0  0  0  0  0  0  0  0
    4.7266    1.2601    0.9884 N   0  0  0  0  0  0  0  0  0  0  0  0
    4.0282    0.3025    0.3279 C   0  0  0  0  0  0  0  0  0  0  0  0
   -1.9683   -0.1014   -1.5628 H   0  0  0  0  0  0  0  0  0  0  0  0
   -1.7074    0.1039    1.4628 H   0  0  0  0  0  0  0  0  0  0  0  0
   -0.5540    2.7059   -0.8731 H   0  0  0  0  0  0  0  0  0  0  0  0
   -1.8358    4.7799   -1.3846 H   0  0  0  0  0  0  0  0  0  0  0  0
   -4.1674    5.0393   -0.5547 H   0  0  0  0  0  0  0  0  0  0  0  0
   -5.2068    3.2268    0.7994 H   0  0  0  0  0  0  0  0  0  0  0  0
   -3.9218    1.1617    1.3078 H   0  0  0  0  0  0  0  0  0  0  0  0
   -1.3107   -2.9637    0.6651 H   0  0  0  0  0  0  0  0  0  0  0  0
   -3.0772   -4.5586    1.4076 H   0  0  0  0  0  0  0  0  0  0  0  0
   -5.4685   -4.0864    0.9099 H   0  0  0  0  0  0  0  0  0  0  0  0
   -6.0876   -2.0245   -0.3405 H   0  0  0  0  0  0  0  0  0  0  0  0
   -4.3196   -0.4422   -1.0808 H   0  0  0  0  0  0  0  0  0  0  0  0
    1.8280   -2.2830   -1.4818 H   0  0  0  0  0  0  0  0  0  0  0  0
    4.3469   -2.5451   -1.5669 H   0  0  0  0  0  0  0  0  0  0  0  0
    6.6144   -1.6133   -0.8679 H   0  0  0  0  0  0  0  0  0  0  0  0
    7.8663    0.1824    0.3707 H   0  0  0  0  0  0  0  0  0  0  0  0
    6.5670    1.9774    1.5244 H   0  0  0  0  0  0  0  0  0  0  0  0
  1  2  1  0  0  0  0
  1  5  1  0  0  0  0
  2  3  2  0  0  0  0
  2 19  1  0  0  0  0
  3  4  1  0  0  0  0
  4  5  1  0  0  0  0
  4 12  1  0  0  0  0
  4 28  1  6  0  0  0
  5  6  1  0  0  0  0
  5 29  1  1  0  0  0
  6  7  2  0  0  0  0
  6 11  1  0  0  0  0
  7  8  1  0  0  0  0
  7 30  1  0  0  0  0
  8  9  2  0  0  0  0
  8 31  1  0  0  0  0
  9 10  1  0  0  0  0
  9 32  1  0  0  0  0
 10 11  2  0  0  0  0
 10 33  1  0  0  0  0
 11 34  1  0  0  0  0
 12 13  2  0  0  0  0
 12 17  1  0  0  0  0
 13 14  1  0  0  0  0
 13 35  1  0  0  0  0
 14 15  2  0  0  0  0
 14 36  1  0  0  0  0
 15 16  1  0  0  0  0
 15 37  1  0  0  0  0
 16 17  2  0  0  0  0
 16 38  1  0  0  0  0
 17 39  1  0  0  0  0
 18 19  1  0  0  0  0
 18 27  2  0  0  0  0
 19 20  2  0  0  0  0
 20 21  1  0  0  0  0
 20 40  1  0  0  0  0
 21 22  2  0  0  0  0
 21 41  1  0  0  0  0
 22 23  1  0  0  0  0
 22 27  1  0  0  0  0
 23 24  2  0  0  0  0
 23 42  1  0  0  0  0
 24 25  1  0  0  0  0
 24 43  1  0  0  0  0
 25 26  2  0  0  0  0
 25 44  1  0  0  0  0
 26 27  1  0  0  0  0
M  END
$$$$
