Title Card Required
 OpenBabel03192317523D

 32 34  0  0  1  0  0  0  0  0999 V2000
   -0.9756    2.3530   -0.0566 O   0  0  0  0  0  0  0  0  0  0  0  0
   -0.9070    1.0135   -0.1533 C   0  0  0  0  0  0  0  0  0  0  0  0
    0.2314    0.4698   -0.2968 N   0  0  0  0  0  0  0  0  0  0  0  0
    1.2157    1.5494   -0.3274 C   0  0  1  0  0  0  0  0  0  0  0  0
    0.3731    2.8218   -0.0582 C   0  0  0  0  0  0  0  0  0  0  0  0
   -2.1896    0.2700   -0.0987 C   0  0  0  0  0  0  0  0  0  0  0  0
   -2.1694   -1.1189   -0.2787 C   0  0  0  0  0  0  0  0  0  0  0  0
   -3.3721   -1.8117   -0.2310 C   0  0  0  0  0  0  0  0  0  0  0  0
   -4.5258   -1.0727   -0.0065 C   0  0  0  0  0  0  0  0  0  0  0  0
   -4.4562    0.3085    0.1644 C   0  0  0  0  0  0  0  0  0  0  0  0
   -3.3048    0.9634    0.1175 N   0  0  0  0  0  0  0  0  0  0  0  0
   -5.7068   -1.6765    0.0450 F   0  0  0  0  0  0  0  0  0  0  0  0
    2.3348    1.3391    0.6986 C   0  0  0  0  0  0  0  0  0  0  0  0
    3.2032    0.1458    0.3913 C   0  0  0  0  0  0  0  0  0  0  0  0
    4.4274    0.3037   -0.2657 C   0  0  0  0  0  0  0  0  0  0  0  0
    5.2170   -0.8010   -0.5839 C   0  0  0  0  0  0  0  0  0  0  0  0
    4.7892   -2.0833   -0.2460 C   0  0  0  0  0  0  0  0  0  0  0  0
    3.5687   -2.2527    0.4086 C   0  0  0  0  0  0  0  0  0  0  0  0
    2.7813   -1.1474    0.7218 C   0  0  0  0  0  0  0  0  0  0  0  0
    1.6731    1.5728   -1.3311 H   0  0  0  0  0  0  0  0  0  0  0  0
    0.5917    3.2651    0.9264 H   0  0  0  0  0  0  0  0  0  0  0  0
    0.4786    3.5951   -0.8297 H   0  0  0  0  0  0  0  0  0  0  0  0
   -1.2158   -1.6170   -0.4536 H   0  0  0  0  0  0  0  0  0  0  0  0
   -3.4331   -2.8922   -0.3644 H   0  0  0  0  0  0  0  0  0  0  0  0
   -5.3744    0.8758    0.3423 H   0  0  0  0  0  0  0  0  0  0  0  0
    2.9538    2.2500    0.7244 H   0  0  0  0  0  0  0  0  0  0  0  0
    1.8690    1.2305    1.6912 H   0  0  0  0  0  0  0  0  0  0  0  0
    4.7701    1.3081   -0.5277 H   0  0  0  0  0  0  0  0  0  0  0  0
    6.1717   -0.6579   -1.0926 H   0  0  0  0  0  0  0  0  0  0  0  0
    5.4059   -2.9496   -0.4907 H   0  0  0  0  0  0  0  0  0  0  0  0
    3.2282   -3.2543    0.6767 H   0  0  0  0  0  0  0  0  0  0  0  0
    1.8190   -1.2791    1.2195 H   0  0  0  0  0  0  0  0  0  0  0  0
  1  2  1  0  0  0  0
  1  5  1  0  0  0  0
  2  3  2  0  0  0  0
  2  6  1  0  0  0  0
  3  4  1  0  0  0  0
  4  5  1  0  0  0  0
  4 13  1  0  0  0  0
  4 20  1  6  0  0  0
  5 21  1  0  0  0  0
  5 22  1  0  0  0  0
  6  7  2  0  0  0  0
  6 11  1  0  0  0  0
  7  8  1  0  0  0  0
  7 23  1  0  0  0  0
  8  9  2  0  0  0  0
  8 24  1  0  0  0  0
  9 10  1  0  0  0  0
  9 12  1  0  0  0  0
 10 11  2  0  0  0  0
 10 25  1  0  0  0  0
 13 14  1  0  0  0  0
 13 26  1  0  0  0  0
 13 27  1  0  0  0  0
 14 15  2  0  0  0  0
 14 19  1  0  0  0  0
 15 16  1  0  0  0  0
 15 28  1  0  0  0  0
 16 17  2  0  0  0  0
 16 29  1  0  0  0  0
 17 18  1  0  0  0  0
 17 30  1  0  0  0  0
 18 19  2  0  0  0  0
 18 31  1  0  0  0  0
 19 32  1  0  0  0  0
M  END
$$$$
