Title Card Required
 OpenBabel03192317473D

 33 34  0  0  1  0  0  0  0  0999 V2000
    2.6831   -0.8302   -1.1923 C   0  0  0  0  0  0  0  0  0  0  0  0
    2.7187   -1.2423    0.3019 C   0  0  2  0  0  0  0  0  0  0  0  0
    1.6066   -0.4947    0.8936 N   0  0  0  0  0  0  0  0  0  0  0  0
    1.1594    0.2769   -0.0048 C   0  0  0  0  0  0  0  0  0  0  0  0
    1.7287    0.2307   -1.2304 O   0  0  0  0  0  0  0  0  0  0  0  0
    0.0122    1.2525    0.1651 C   0  0  0  0  0  0  0  0  0  0  0  0
   -1.2587    0.4652   -0.0488 C   0  0  0  0  0  0  0  0  0  0  0  0
   -2.2802    0.4635    0.6960 N   0  0  0  0  0  0  0  0  0  0  0  0
   -3.2584   -0.4391    0.0847 C   0  0  1  0  0  0  0  0  0  0  0  0
   -2.5555   -0.9325   -1.2077 C   0  0  0  0  0  0  0  0  0  0  0  0
   -1.2839   -0.2833   -1.1791 O   0  0  0  0  0  0  0  0  0  0  0  0
    4.0256   -0.8962    1.0032 C   0  0  0  0  0  0  0  0  0  0  0  0
   -3.6325   -1.5607    1.0426 C   0  0  0  0  0  0  0  0  0  0  0  0
    0.0278    1.8301    1.5785 C   0  0  0  0  0  0  0  0  0  0  0  0
    0.0796    2.3585   -0.8992 C   0  0  0  0  0  0  0  0  0  0  0  0
    3.6475   -0.4528   -1.5615 H   0  0  0  0  0  0  0  0  0  0  0  0
    2.3342   -1.6357   -1.8543 H   0  0  0  0  0  0  0  0  0  0  0  0
    2.5228   -2.3194    0.4164 H   0  0  0  0  0  0  0  0  0  0  0  0
   -4.1624    0.1419   -0.1585 H   0  0  0  0  0  0  0  0  0  0  0  0
   -2.3960   -2.0213   -1.2127 H   0  0  0  0  0  0  0  0  0  0  0  0
   -3.0784   -0.6443   -2.1299 H   0  0  0  0  0  0  0  0  0  0  0  0
    3.9466   -1.1079    2.0775 H   0  0  0  0  0  0  0  0  0  0  0  0
    4.8624   -1.4765    0.5875 H   0  0  0  0  0  0  0  0  0  0  0  0
    4.2462    0.1749    0.8798 H   0  0  0  0  0  0  0  0  0  0  0  0
   -4.0551   -1.1456    1.9669 H   0  0  0  0  0  0  0  0  0  0  0  0
   -4.3717   -2.2367    0.5883 H   0  0  0  0  0  0  0  0  0  0  0  0
   -2.7370   -2.1431    1.3059 H   0  0  0  0  0  0  0  0  0  0  0  0
    0.9352    2.4334    1.7210 H   0  0  0  0  0  0  0  0  0  0  0  0
   -0.8598    2.4564    1.7315 H   0  0  0  0  0  0  0  0  0  0  0  0
    0.0219    1.0205    2.3174 H   0  0  0  0  0  0  0  0  0  0  0  0
    1.0228    2.9146   -0.8058 H   0  0  0  0  0  0  0  0  0  0  0  0
    0.0268    1.9321   -1.9081 H   0  0  0  0  0  0  0  0  0  0  0  0
   -0.7574    3.0549   -0.7519 H   0  0  0  0  0  0  0  0  0  0  0  0
  1  2  1  0  0  0  0
  1  5  1  0  0  0  0
  1 16  1  0  0  0  0
  1 17  1  0  0  0  0
  2  3  1  0  0  0  0
  2 12  1  0  0  0  0
  2 18  1  1  0  0  0
  3  4  2  0  0  0  0
  4  5  1  0  0  0  0
  4  6  1  0  0  0  0
  6  7  1  0  0  0  0
  6 14  1  0  0  0  0
  6 15  1  0  0  0  0
  7  8  2  0  0  0  0
  7 11  1  0  0  0  0
  8  9  1  0  0  0  0
  9 10  1  0  0  0  0
  9 13  1  0  0  0  0
  9 19  1  6  0  0  0
 10 11  1  0  0  0  0
 10 20  1  0  0  0  0
 10 21  1  0  0  0  0
 12 22  1  0  0  0  0
 12 23  1  0  0  0  0
 12 24  1  0  0  0  0
 13 25  1  0  0  0  0
 13 26  1  0  0  0  0
 13 27  1  0  0  0  0
 14 28  1  0  0  0  0
 14 29  1  0  0  0  0
 14 30  1  0  0  0  0
 15 31  1  0  0  0  0
 15 32  1  0  0  0  0
 15 33  1  0  0  0  0
M  END
$$$$
