Title Card Required
 OpenBabel03192317463D

 34 36  0  0  1  0  0  0  0  0999 V2000
   -1.4797   -1.9495    0.1144 O   0  0  0  0  0  0  0  0  0  0  0  0
   -0.7783   -0.8817   -0.3183 C   0  0  0  0  0  0  0  0  0  0  0  0
   -1.4240    0.0871   -0.8289 N   0  0  0  0  0  0  0  0  0  0  0  0
   -2.8458   -0.2413   -0.7134 C   0  0  1  0  0  0  0  0  0  0  0  0
   -2.8329   -1.7216   -0.2729 C   0  0  0  0  0  0  0  0  0  0  0  0
    0.7002   -0.9823   -0.1363 C   0  0  0  0  0  0  0  0  0  0  0  0
    1.1502   -2.2060    0.0056 N   0  0  0  0  0  0  0  0  0  0  0  0
    2.4722   -2.4127    0.1761 C   0  0  0  0  0  0  0  0  0  0  0  0
    3.3896   -1.3937    0.2220 C   0  0  0  0  0  0  0  0  0  0  0  0
    2.9425   -0.0559    0.0829 C   0  0  0  0  0  0  0  0  0  0  0  0
    3.8414    1.0440    0.1352 C   0  0  0  0  0  0  0  0  0  0  0  0
    3.3752    2.3271    0.0029 C   0  0  0  0  0  0  0  0  0  0  0  0
    1.9917    2.5635   -0.1883 C   0  0  0  0  0  0  0  0  0  0  0  0
    1.0972    1.5220   -0.2460 C   0  0  0  0  0  0  0  0  0  0  0  0
    1.5497    0.1786   -0.1106 C   0  0  0  0  0  0  0  0  0  0  0  0
   -3.5433    0.7054    0.2806 C   0  0  0  0  0  0  0  0  0  0  0  0
   -2.8613    0.6911    1.6475 C   0  0  0  0  0  0  0  0  0  0  0  0
   -3.6170    2.1220   -0.2825 C   0  0  0  0  0  0  0  0  0  0  0  0
   -3.3267   -0.1225   -1.6966 H   0  0  0  0  0  0  0  0  0  0  0  0
   -3.4890   -1.9324    0.5831 H   0  0  0  0  0  0  0  0  0  0  0  0
   -3.0825   -2.4100   -1.0940 H   0  0  0  0  0  0  0  0  0  0  0  0
    2.7836   -3.4552    0.2805 H   0  0  0  0  0  0  0  0  0  0  0  0
    4.4512   -1.6012    0.3664 H   0  0  0  0  0  0  0  0  0  0  0  0
    4.9044    0.8453    0.2840 H   0  0  0  0  0  0  0  0  0  0  0  0
    4.0677    3.1692    0.0445 H   0  0  0  0  0  0  0  0  0  0  0  0
    1.6315    3.5879   -0.2933 H   0  0  0  0  0  0  0  0  0  0  0  0
    0.0379    1.7013   -0.4136 H   0  0  0  0  0  0  0  0  0  0  0  0
   -4.5723    0.3200    0.3955 H   0  0  0  0  0  0  0  0  0  0  0  0
   -1.8619    1.1472    1.5792 H   0  0  0  0  0  0  0  0  0  0  0  0
   -3.4462    1.2658    2.3795 H   0  0  0  0  0  0  0  0  0  0  0  0
   -2.7360   -0.3294    2.0407 H   0  0  0  0  0  0  0  0  0  0  0  0
   -4.1617    2.1459   -1.2376 H   0  0  0  0  0  0  0  0  0  0  0  0
   -4.1267    2.7984    0.4188 H   0  0  0  0  0  0  0  0  0  0  0  0
   -2.6039    2.5114   -0.4617 H   0  0  0  0  0  0  0  0  0  0  0  0
  1  2  1  0  0  0  0
  1  5  1  0  0  0  0
  2  3  2  0  0  0  0
  2  6  1  0  0  0  0
  3  4  1  0  0  0  0
  4  5  1  0  0  0  0
  4 16  1  0  0  0  0
  4 19  1  6  0  0  0
  5 20  1  0  0  0  0
  5 21  1  0  0  0  0
  6  7  2  0  0  0  0
  6 15  1  0  0  0  0
  7  8  1  0  0  0  0
  8  9  2  0  0  0  0
  8 22  1  0  0  0  0
  9 10  1  0  0  0  0
  9 23  1  0  0  0  0
 10 11  2  0  0  0  0
 10 15  1  0  0  0  0
 11 12  1  0  0  0  0
 11 24  1  0  0  0  0
 12 13  2  0  0  0  0
 12 25  1  0  0  0  0
 13 14  1  0  0  0  0
 13 26  1  0  0  0  0
 14 15  2  0  0  0  0
 14 27  1  0  0  0  0
 16 17  1  0  0  0  0
 16 18  1  0  0  0  0
 16 28  1  0  0  0  0
 17 29  1  0  0  0  0
 17 30  1  0  0  0  0
 17 31  1  0  0  0  0
 18 32  1  0  0  0  0
 18 33  1  0  0  0  0
 18 34  1  0  0  0  0
M  END
$$$$
