Title Card Required
 OpenBabel03192317493D

 39 40  0  0  1  0  0  0  0  0999 V2000
    1.0731   -0.8820    1.0912 O   0  0  0  0  0  0  0  0  0  0  0  0
    1.2005    0.0798    0.1434 C   0  0  0  0  0  0  0  0  0  0  0  0
    2.2891    0.1475   -0.4976 N   0  0  0  0  0  0  0  0  0  0  0  0
    3.1222   -0.9693   -0.0424 C   0  0  1  0  0  0  0  0  0  0  0  0
    2.3252   -1.5652    1.1455 C   0  0  0  0  0  0  0  0  0  0  0  0
   -0.0004    0.9809    0.0004 C   0  0  0  0  0  0  0  0  0  0  0  0
    3.3372   -1.9562   -1.1826 C   0  0  0  0  0  0  0  0  0  0  0  0
   -2.3292   -1.5597   -1.1498 C   0  0  0  0  0  0  0  0  0  0  0  0
   -3.1222   -0.9705    0.0440 C   0  0  2  0  0  0  0  0  0  0  0  0
   -2.2890    0.1461    0.5001 N   0  0  0  0  0  0  0  0  0  0  0  0
   -1.2017    0.0806   -0.1433 C   0  0  0  0  0  0  0  0  0  0  0  0
   -1.0762   -0.8783   -1.0943 O   0  0  0  0  0  0  0  0  0  0  0  0
   -3.3295   -1.9625    1.1812 C   0  0  0  0  0  0  0  0  0  0  0  0
   -0.1469    1.8261    1.2816 C   0  0  0  0  0  0  0  0  0  0  0  0
    0.1466    1.8276   -1.2797 C   0  0  0  0  0  0  0  0  0  0  0  0
   -0.9779    2.8369   -1.4751 C   0  0  0  0  0  0  0  0  0  0  0  0
    0.9778    2.8352    1.4779 C   0  0  0  0  0  0  0  0  0  0  0  0
    4.0958   -0.5789    0.2910 H   0  0  0  0  0  0  0  0  0  0  0  0
    2.1451   -2.6450    1.0441 H   0  0  0  0  0  0  0  0  0  0  0  0
    2.7909   -1.3694    2.1224 H   0  0  0  0  0  0  0  0  0  0  0  0
    3.8135   -1.4537   -2.0346 H   0  0  0  0  0  0  0  0  0  0  0  0
    3.9738   -2.7949   -0.8644 H   0  0  0  0  0  0  0  0  0  0  0  0
    2.3671   -2.3542   -1.5168 H   0  0  0  0  0  0  0  0  0  0  0  0
   -2.1503   -2.6403   -1.0563 H   0  0  0  0  0  0  0  0  0  0  0  0
   -2.7974   -1.3566   -2.1241 H   0  0  0  0  0  0  0  0  0  0  0  0
   -4.0981   -0.5808   -0.2833 H   0  0  0  0  0  0  0  0  0  0  0  0
   -3.8019   -1.4643    2.0378 H   0  0  0  0  0  0  0  0  0  0  0  0
   -3.9663   -2.8009    0.8629 H   0  0  0  0  0  0  0  0  0  0  0  0
   -2.3568   -2.3600    1.5086 H   0  0  0  0  0  0  0  0  0  0  0  0
   -1.1255    2.3248    1.2466 H   0  0  0  0  0  0  0  0  0  0  0  0
   -0.1975    1.1311    2.1322 H   0  0  0  0  0  0  0  0  0  0  0  0
    1.1252    2.3262   -1.2437 H   0  0  0  0  0  0  0  0  0  0  0  0
    0.1973    1.1336   -2.1311 H   0  0  0  0  0  0  0  0  0  0  0  0
   -0.9622    3.6200   -0.7031 H   0  0  0  0  0  0  0  0  0  0  0  0
   -0.8826    3.3325   -2.4509 H   0  0  0  0  0  0  0  0  0  0  0  0
   -1.9665    2.3548   -1.4345 H   0  0  0  0  0  0  0  0  0  0  0  0
    0.9615    3.6196    0.7073 H   0  0  0  0  0  0  0  0  0  0  0  0
    0.8829    3.3292    2.4546 H   0  0  0  0  0  0  0  0  0  0  0  0
    1.9663    2.3532    1.4360 H   0  0  0  0  0  0  0  0  0  0  0  0
  1  2  1  0  0  0  0
  1  5  1  0  0  0  0
  2  3  2  0  0  0  0
  2  6  1  0  0  0  0
  3  4  1  0  0  0  0
  4  5  1  0  0  0  0
  4  7  1  0  0  0  0
  4 18  1  1  0  0  0
  5 19  1  0  0  0  0
  5 20  1  0  0  0  0
  6 11  1  0  0  0  0
  6 14  1  0  0  0  0
  6 15  1  0  0  0  0
  7 21  1  0  0  0  0
  7 22  1  0  0  0  0
  7 23  1  0  0  0  0
  8  9  1  0  0  0  0
  8 12  1  0  0  0  0
  8 24  1  0  0  0  0
  8 25  1  0  0  0  0
  9 10  1  0  0  0  0
  9 13  1  0  0  0  0
  9 26  1  6  0  0  0
 10 11  2  0  0  0  0
 11 12  1  0  0  0  0
 13 27  1  0  0  0  0
 13 28  1  0  0  0  0
 13 29  1  0  0  0  0
 14 17  1  0  0  0  0
 14 30  1  0  0  0  0
 14 31  1  0  0  0  0
 15 16  1  0  0  0  0
 15 32  1  0  0  0  0
 15 33  1  0  0  0  0
 16 34  1  0  0  0  0
 16 35  1  0  0  0  0
 16 36  1  0  0  0  0
 17 37  1  0  0  0  0
 17 38  1  0  0  0  0
 17 39  1  0  0  0  0
M  END
$$$$
