Title Card Required
 OpenBabel03192317503D

 71 74  0  0  1  0  0  0  0  0999 V2000
    1.2467    0.2856   -1.8301 O   0  0  0  0  0  0  0  0  0  0  0  0
    0.8317   -0.2575   -0.6623 C   0  0  0  0  0  0  0  0  0  0  0  0
    1.1398   -1.4596   -0.4216 N   0  0  0  0  0  0  0  0  0  0  0  0
    1.8759   -1.9660   -1.5778 C   0  0  1  0  0  0  0  0  0  0  0  0
    2.0075   -0.7260   -2.5001 C   0  0  0  0  0  0  0  0  0  0  0  0
    0.0264    0.6208    0.2760 C   0  0  0  0  0  0  0  0  0  0  0  0
   -3.1807   -0.8666   -0.5173 C   0  0  0  0  0  0  0  0  0  0  0  0
   -3.3251   -0.7106    1.0158 C   0  0  2  0  0  0  0  0  0  0  0  0
   -2.0996   -0.0013    1.3991 N   0  0  0  0  0  0  0  0  0  0  0  0
   -1.3415   -0.0157    0.3855 C   0  0  0  0  0  0  0  0  0  0  0  0
   -1.8022   -0.5729   -0.7515 O   0  0  0  0  0  0  0  0  0  0  0  0
   -3.4685   -2.0376    1.8010 C   0  0  0  0  0  0  0  0  0  0  0  0
    3.1998   -2.6507   -1.1766 C   0  0  0  0  0  0  0  0  0  0  0  0
    2.8593   -3.8711   -0.3158 C   0  0  0  0  0  0  0  0  0  0  0  0
    3.9265   -3.1062   -2.4452 C   0  0  0  0  0  0  0  0  0  0  0  0
   -2.2969   -2.9748    1.4908 C   0  0  0  0  0  0  0  0  0  0  0  0
   -3.4846   -1.7161    3.2983 C   0  0  0  0  0  0  0  0  0  0  0  0
    4.0826   -1.6948   -0.3709 C   0  0  0  0  0  0  0  0  0  0  0  0
   -4.7925   -2.7031    1.4145 C   0  0  0  0  0  0  0  0  0  0  0  0
    0.6785    0.6128    1.6740 C   0  0  0  0  0  0  0  0  0  0  0  0
    1.9222    1.4559    1.8469 C   0  0  0  0  0  0  0  0  0  0  0  0
    2.9256    1.5566    0.8735 C   0  0  0  0  0  0  0  0  0  0  0  0
    4.0786    2.3047    1.1073 C   0  0  0  0  0  0  0  0  0  0  0  0
    4.2541    2.9697    2.3198 C   0  0  0  0  0  0  0  0  0  0  0  0
    3.2613    2.8859    3.2940 C   0  0  0  0  0  0  0  0  0  0  0  0
    2.1090    2.1398    3.0543 C   0  0  0  0  0  0  0  0  0  0  0  0
   -0.1564    2.0820   -0.2395 C   0  0  0  0  0  0  0  0  0  0  0  0
   -1.2987    2.3007   -1.2050 C   0  0  0  0  0  0  0  0  0  0  0  0
   -2.5733    2.6033   -0.7097 C   0  0  0  0  0  0  0  0  0  0  0  0
   -3.6531    2.7861   -1.5728 C   0  0  0  0  0  0  0  0  0  0  0  0
   -3.4726    2.6663   -2.9501 C   0  0  0  0  0  0  0  0  0  0  0  0
   -2.2056    2.3726   -3.4539 C   0  0  0  0  0  0  0  0  0  0  0  0
   -1.1275    2.1933   -2.5891 C   0  0  0  0  0  0  0  0  0  0  0  0
    1.2518   -2.7351   -2.0656 H   0  0  0  0  0  0  0  0  0  0  0  0
    3.0424   -0.3665   -2.6045 H   0  0  0  0  0  0  0  0  0  0  0  0
    1.5816   -0.8783   -3.4999 H   0  0  0  0  0  0  0  0  0  0  0  0
   -3.3916   -1.8763   -0.8922 H   0  0  0  0  0  0  0  0  0  0  0  0
   -3.7844   -0.1348   -1.0746 H   0  0  0  0  0  0  0  0  0  0  0  0
   -4.1958   -0.0820    1.2644 H   0  0  0  0  0  0  0  0  0  0  0  0
    2.2479   -4.5902   -0.8828 H   0  0  0  0  0  0  0  0  0  0  0  0
    3.7778   -4.3843    0.0065 H   0  0  0  0  0  0  0  0  0  0  0  0
    2.2910   -3.5667    0.5734 H   0  0  0  0  0  0  0  0  0  0  0  0
    4.2202   -2.2547   -3.0793 H   0  0  0  0  0  0  0  0  0  0  0  0
    4.8438   -3.6552   -2.1848 H   0  0  0  0  0  0  0  0  0  0  0  0
    3.2909   -3.7769   -3.0448 H   0  0  0  0  0  0  0  0  0  0  0  0
   -1.3364   -2.5110    1.7593 H   0  0  0  0  0  0  0  0  0  0  0  0
   -2.3981   -3.9088    2.0639 H   0  0  0  0  0  0  0  0  0  0  0  0
   -2.2531   -3.2418    0.4237 H   0  0  0  0  0  0  0  0  0  0  0  0
   -4.3197   -1.0417    3.5447 H   0  0  0  0  0  0  0  0  0  0  0  0
   -3.6062   -2.6381    3.8868 H   0  0  0  0  0  0  0  0  0  0  0  0
   -2.5504   -1.2234    3.5979 H   0  0  0  0  0  0  0  0  0  0  0  0
    4.3722   -0.8057   -0.9538 H   0  0  0  0  0  0  0  0  0  0  0  0
    3.5610   -1.3547    0.5359 H   0  0  0  0  0  0  0  0  0  0  0  0
    5.0105   -2.2020   -0.0664 H   0  0  0  0  0  0  0  0  0  0  0  0
   -5.6447   -2.0380    1.6249 H   0  0  0  0  0  0  0  0  0  0  0  0
   -4.8237   -2.9724    0.3477 H   0  0  0  0  0  0  0  0  0  0  0  0
   -4.9366   -3.6286    1.9920 H   0  0  0  0  0  0  0  0  0  0  0  0
   -0.0883    0.9472    2.3854 H   0  0  0  0  0  0  0  0  0  0  0  0
    0.9039   -0.4373    1.9210 H   0  0  0  0  0  0  0  0  0  0  0  0
    2.8088    1.0580   -0.0899 H   0  0  0  0  0  0  0  0  0  0  0  0
    4.8446    2.3704    0.3325 H   0  0  0  0  0  0  0  0  0  0  0  0
    5.1572    3.5540    2.5021 H   0  0  0  0  0  0  0  0  0  0  0  0
    3.3812    3.4065    4.2456 H   0  0  0  0  0  0  0  0  0  0  0  0
    1.3341    2.0796    3.8220 H   0  0  0  0  0  0  0  0  0  0  0  0
   -0.3295    2.7007    0.6532 H   0  0  0  0  0  0  0  0  0  0  0  0
    0.7893    2.4155   -0.6858 H   0  0  0  0  0  0  0  0  0  0  0  0
   -2.7165    2.6917    0.3701 H   0  0  0  0  0  0  0  0  0  0  0  0
   -4.6373    3.0287   -1.1675 H   0  0  0  0  0  0  0  0  0  0  0  0
   -4.3135    2.8106   -3.6303 H   0  0  0  0  0  0  0  0  0  0  0  0
   -2.0547    2.2861   -4.5313 H   0  0  0  0  0  0  0  0  0  0  0  0
   -0.1383    1.9564   -2.9825 H   0  0  0  0  0  0  0  0  0  0  0  0
  1  2  1  0  0  0  0
  1  5  1  0  0  0  0
  2  3  2  0  0  0  0
  2  6  1  0  0  0  0
  3  4  1  0  0  0  0
  4  5  1  0  0  0  0
  4 13  1  0  0  0  0
  4 34  1  6  0  0  0
  5 35  1  0  0  0  0
  5 36  1  0  0  0  0
  6 10  1  0  0  0  0
  6 20  1  0  0  0  0
  6 27  1  0  0  0  0
  7  8  1  0  0  0  0
  7 11  1  0  0  0  0
  7 37  1  0  0  0  0
  7 38  1  0  0  0  0
  8  9  1  0  0  0  0
  8 12  1  0  0  0  0
  8 39  1  1  0  0  0
  9 10  2  0  0  0  0
 10 11  1  0  0  0  0
 12 16  1  0  0  0  0
 12 17  1  0  0  0  0
 12 19  1  0  0  0  0
 13 14  1  0  0  0  0
 13 15  1  0  0  0  0
 13 18  1  0  0  0  0
 14 40  1  0  0  0  0
 14 41  1  0  0  0  0
 14 42  1  0  0  0  0
 15 43  1  0  0  0  0
 15 44  1  0  0  0  0
 15 45  1  0  0  0  0
 16 46  1  0  0  0  0
 16 47  1  0  0  0  0
 16 48  1  0  0  0  0
 17 49  1  0  0  0  0
 17 50  1  0  0  0  0
 17 51  1  0  0  0  0
 18 52  1  0  0  0  0
 18 53  1  0  0  0  0
 18 54  1  0  0  0  0
 19 55  1  0  0  0  0
 19 56  1  0  0  0  0
 19 57  1  0  0  0  0
 20 21  1  0  0  0  0
 20 58  1  0  0  0  0
 20 59  1  0  0  0  0
 21 22  2  0  0  0  0
 21 26  1  0  0  0  0
 22 23  1  0  0  0  0
 22 60  1  0  0  0  0
 23 24  2  0  0  0  0
 23 61  1  0  0  0  0
 24 25  1  0  0  0  0
 24 62  1  0  0  0  0
 25 26  2  0  0  0  0
 25 63  1  0  0  0  0
 26 64  1  0  0  0  0
 27 28  1  0  0  0  0
 27 65  1  0  0  0  0
 27 66  1  0  0  0  0
 28 29  2  0  0  0  0
 28 33  1  0  0  0  0
 29 30  1  0  0  0  0
 29 67  1  0  0  0  0
 30 31  2  0  0  0  0
 30 68  1  0  0  0  0
 31 32  1  0  0  0  0
 31 69  1  0  0  0  0
 32 33  2  0  0  0  0
 32 70  1  0  0  0  0
 33 71  1  0  0  0  0
M  END
$$$$
