Title Card Required
 OpenBabel03192317543D

 43 47  0  0  1  0  0  0  0  0999 V2000
    4.2966   -0.4156   -0.4268 C   0  0  0  0  0  0  0  0  0  0  0  0
    4.1627    0.6344    0.5117 C   0  0  0  0  0  0  0  0  0  0  0  0
    5.3236    1.2364    1.0357 C   0  0  0  0  0  0  0  0  0  0  0  0
    6.5665    0.7919    0.6226 C   0  0  0  0  0  0  0  0  0  0  0  0
    6.6816   -0.2538   -0.3147 C   0  0  0  0  0  0  0  0  0  0  0  0
    5.5567   -0.8644   -0.8451 C   0  0  0  0  0  0  0  0  0  0  0  0
    2.7511   -1.0200   -0.9457 S   0  0  0  0  0  0  0  0  0  0  0  0
    1.9356    0.1241    0.0863 C   0  0  0  0  0  0  0  0  0  0  0  0
    2.7844    0.9243    0.7895 C   0  0  0  0  0  0  0  0  0  0  0  0
    0.4756    0.1655    0.1431 C   0  0  0  0  0  0  0  0  0  0  0  0
   -0.2204    0.9923    0.8077 N   0  0  0  0  0  0  0  0  0  0  0  0
   -1.6143    0.6030    0.6325 C   0  0  2  0  0  0  0  0  0  0  0  0
   -1.5612   -0.4848   -0.4961 C   0  0  1  0  0  0  0  0  0  0  0  0
   -0.1651   -0.7896   -0.5727 O   0  0  0  0  0  0  0  0  0  0  0  0
   -2.5401    1.7462    0.2932 C   0  0  0  0  0  0  0  0  0  0  0  0
   -2.3804   -1.7123   -0.2124 C   0  0  0  0  0  0  0  0  0  0  0  0
   -3.6978   -1.7877   -0.6721 C   0  0  0  0  0  0  0  0  0  0  0  0
   -4.4935   -2.8862   -0.3485 C   0  0  0  0  0  0  0  0  0  0  0  0
   -3.9732   -3.9207    0.4276 C   0  0  0  0  0  0  0  0  0  0  0  0
   -2.6545   -3.8533    0.8783 C   0  0  0  0  0  0  0  0  0  0  0  0
   -1.8606   -2.7530    0.5622 C   0  0  0  0  0  0  0  0  0  0  0  0
   -3.9114    1.6254    0.5408 C   0  0  0  0  0  0  0  0  0  0  0  0
   -4.7874    2.6461    0.1746 C   0  0  0  0  0  0  0  0  0  0  0  0
   -4.2979    3.8010   -0.4347 C   0  0  0  0  0  0  0  0  0  0  0  0
   -2.9301    3.9299   -0.6741 C   0  0  0  0  0  0  0  0  0  0  0  0
   -2.0545    2.9068   -0.3134 C   0  0  0  0  0  0  0  0  0  0  0  0
    5.2315    2.0456    1.7619 H   0  0  0  0  0  0  0  0  0  0  0  0
    7.4692    1.2533    1.0248 H   0  0  0  0  0  0  0  0  0  0  0  0
    7.6713   -0.5886   -0.6285 H   0  0  0  0  0  0  0  0  0  0  0  0
    5.6481   -1.6733   -1.5711 H   0  0  0  0  0  0  0  0  0  0  0  0
    2.4241    1.6870    1.4792 H   0  0  0  0  0  0  0  0  0  0  0  0
   -1.9662    0.1385    1.5705 H   0  0  0  0  0  0  0  0  0  0  0  0
   -1.8642   -0.0393   -1.4578 H   0  0  0  0  0  0  0  0  0  0  0  0
   -4.1000   -0.9800   -1.2887 H   0  0  0  0  0  0  0  0  0  0  0  0
   -5.5208   -2.9382   -0.7125 H   0  0  0  0  0  0  0  0  0  0  0  0
   -4.5927   -4.7835    0.6768 H   0  0  0  0  0  0  0  0  0  0  0  0
   -2.2400   -4.6651    1.4779 H   0  0  0  0  0  0  0  0  0  0  0  0
   -0.8243   -2.7003    0.9004 H   0  0  0  0  0  0  0  0  0  0  0  0
   -4.2930    0.7253    1.0300 H   0  0  0  0  0  0  0  0  0  0  0  0
   -5.8551    2.5431    0.3744 H   0  0  0  0  0  0  0  0  0  0  0  0
   -4.9811    4.6037   -0.7161 H   0  0  0  0  0  0  0  0  0  0  0  0
   -2.5403    4.8366   -1.1398 H   0  0  0  0  0  0  0  0  0  0  0  0
   -0.9810    3.0061   -0.4825 H   0  0  0  0  0  0  0  0  0  0  0  0
  1  2  2  0  0  0  0
  1  6  1  0  0  0  0
  1  7  1  0  0  0  0
  2  3  1  0  0  0  0
  2  9  1  0  0  0  0
  3  4  2  0  0  0  0
  3 27  1  0  0  0  0
  4  5  1  0  0  0  0
  4 28  1  0  0  0  0
  5  6  2  0  0  0  0
  5 29  1  0  0  0  0
  6 30  1  0  0  0  0
  7  8  1  0  0  0  0
  8  9  2  0  0  0  0
  8 10  1  0  0  0  0
  9 31  1  0  0  0  0
 10 11  2  0  0  0  0
 10 14  1  0  0  0  0
 11 12  1  0  0  0  0
 12 13  1  0  0  0  0
 12 15  1  0  0  0  0
 12 32  1  1  0  0  0
 13 14  1  0  0  0  0
 13 16  1  0  0  0  0
 13 33  1  6  0  0  0
 15 22  2  0  0  0  0
 15 26  1  0  0  0  0
 16 17  2  0  0  0  0
 16 21  1  0  0  0  0
 17 18  1  0  0  0  0
 17 34  1  0  0  0  0
 18 19  2  0  0  0  0
 18 35  1  0  0  0  0
 19 20  1  0  0  0  0
 19 36  1  0  0  0  0
 20 21  2  0  0  0  0
 20 37  1  0  0  0  0
 21 38  1  0  0  0  0
 22 23  1  0  0  0  0
 22 39  1  0  0  0  0
 23 24  2  0  0  0  0
 23 40  1  0  0  0  0
 24 25  1  0  0  0  0
 24 41  1  0  0  0  0
 25 26  2  0  0  0  0
 25 42  1  0  0  0  0
 26 43  1  0  0  0  0
M  END
$$$$
