Title Card Required
 OpenBabel03192317543D

 83 90  0  0  1  0  0  0  0  0999 V2000
    0.4497    1.5427   -1.0874 C   0  0  0  0  0  0  0  0  0  0  0  0
    0.2881    0.0918   -0.6183 C   0  0  0  0  0  0  0  0  0  0  0  0
    0.3152   -0.0731    0.9230 C   0  0  0  0  0  0  0  0  0  0  0  0
   -1.7341    1.1963    1.2609 N   0  0  0  0  0  0  0  0  0  0  0  0
   -1.0167    0.1519    1.5998 C   0  0  0  0  0  0  0  0  0  0  0  0
   -1.4676   -0.7999    2.5673 C   0  0  0  0  0  0  0  0  0  0  0  0
   -2.6897   -0.6342    3.1564 C   0  0  0  0  0  0  0  0  0  0  0  0
   -3.4916    0.4827    2.7958 C   0  0  0  0  0  0  0  0  0  0  0  0
   -4.7771    0.7269    3.3458 C   0  0  0  0  0  0  0  0  0  0  0  0
   -5.5057    1.8241    2.9520 C   0  0  0  0  0  0  0  0  0  0  0  0
   -4.9764    2.7219    1.9910 C   0  0  0  0  0  0  0  0  0  0  0  0
   -3.7326    2.5090    1.4449 C   0  0  0  0  0  0  0  0  0  0  0  0
   -2.9570    1.3823    1.8327 C   0  0  0  0  0  0  0  0  0  0  0  0
    2.7624    1.5334   -0.2701 N   0  0  0  0  0  0  0  0  0  0  0  0
    1.8058    2.1718   -0.8969 C   0  0  0  0  0  0  0  0  0  0  0  0
    1.9865    3.4882   -1.4295 C   0  0  0  0  0  0  0  0  0  0  0  0
    3.1950    4.1082   -1.2947 C   0  0  0  0  0  0  0  0  0  0  0  0
    4.2514    3.4363   -0.6205 C   0  0  0  0  0  0  0  0  0  0  0  0
    5.5370    4.0063   -0.4367 C   0  0  0  0  0  0  0  0  0  0  0  0
    6.5177    3.3107    0.2295 C   0  0  0  0  0  0  0  0  0  0  0  0
    6.2469    2.0190    0.7416 C   0  0  0  0  0  0  0  0  0  0  0  0
    5.0084    1.4438    0.5779 C   0  0  0  0  0  0  0  0  0  0  0  0
    3.9785    2.1359   -0.1139 C   0  0  0  0  0  0  0  0  0  0  0  0
   -1.4889   -1.5381   -0.5265 O   0  0  0  0  0  0  0  0  0  0  0  0
   -1.0507   -0.4067   -1.1251 C   0  0  0  0  0  0  0  0  0  0  0  0
   -1.8062    0.1580   -1.9668 N   0  0  0  0  0  0  0  0  0  0  0  0
   -3.0626   -0.5918   -1.9782 C   0  0  1  0  0  0  0  0  0  0  0  0
   -2.8699   -1.6589   -0.8724 C   0  0  0  0  0  0  0  0  0  0  0  0
   -4.2249    0.3715   -1.7086 C   0  0  0  0  0  0  0  0  0  0  0  0
   -5.5329   -0.3285   -1.4449 C   0  0  0  0  0  0  0  0  0  0  0  0
   -6.0735   -0.3485   -0.1544 C   0  0  0  0  0  0  0  0  0  0  0  0
   -7.2684   -1.0180    0.1094 C   0  0  0  0  0  0  0  0  0  0  0  0
   -7.9393   -1.6815   -0.9163 C   0  0  0  0  0  0  0  0  0  0  0  0
   -7.4089   -1.6701   -2.2070 C   0  0  0  0  0  0  0  0  0  0  0  0
   -6.2158   -0.9989   -2.4674 C   0  0  0  0  0  0  0  0  0  0  0  0
    1.6894   -0.4591   -2.5043 O   0  0  0  0  0  0  0  0  0  0  0  0
    1.3548   -0.7868   -1.2351 C   0  0  0  0  0  0  0  0  0  0  0  0
    1.9283   -1.7798   -0.7026 N   0  0  0  0  0  0  0  0  0  0  0  0
    2.9499   -2.2288   -1.6486 C   0  0  1  0  0  0  0  0  0  0  0  0
    2.5895   -1.4752   -2.9488 C   0  0  0  0  0  0  0  0  0  0  0  0
    4.3474   -1.8508   -1.1330 C   0  0  0  0  0  0  0  0  0  0  0  0
    4.7229   -2.5148    0.1672 C   0  0  0  0  0  0  0  0  0  0  0  0
    5.6605   -3.5518    0.1954 C   0  0  0  0  0  0  0  0  0  0  0  0
    6.0007   -4.1808    1.3933 C   0  0  0  0  0  0  0  0  0  0  0  0
    5.4054   -3.7769    2.5861 C   0  0  0  0  0  0  0  0  0  0  0  0
    4.4679   -2.7435    2.5717 C   0  0  0  0  0  0  0  0  0  0  0  0
    4.1270   -2.1199    1.3737 C   0  0  0  0  0  0  0  0  0  0  0  0
   -0.3098    2.1393   -0.5585 H   0  0  0  0  0  0  0  0  0  0  0  0
    0.1905    1.5934   -2.1542 H   0  0  0  0  0  0  0  0  0  0  0  0
    0.6634   -1.0877    1.1493 H   0  0  0  0  0  0  0  0  0  0  0  0
    1.0658    0.6273    1.3185 H   0  0  0  0  0  0  0  0  0  0  0  0
   -0.8360   -1.6567    2.8033 H   0  0  0  0  0  0  0  0  0  0  0  0
   -3.0653   -1.3502    3.8911 H   0  0  0  0  0  0  0  0  0  0  0  0
   -5.1743    0.0280    4.0853 H   0  0  0  0  0  0  0  0  0  0  0  0
   -6.4938    2.0071    3.3767 H   0  0  0  0  0  0  0  0  0  0  0  0
   -5.5649    3.5881    1.6847 H   0  0  0  0  0  0  0  0  0  0  0  0
   -3.3053    3.1864    0.7043 H   0  0  0  0  0  0  0  0  0  0  0  0
    1.1529    3.9720   -1.9407 H   0  0  0  0  0  0  0  0  0  0  0  0
    3.3650    5.1101   -1.6960 H   0  0  0  0  0  0  0  0  0  0  0  0
    5.7302    5.0056   -0.8330 H   0  0  0  0  0  0  0  0  0  0  0  0
    7.5056    3.7523    0.3683 H   0  0  0  0  0  0  0  0  0  0  0  0
    7.0287    1.4749    1.2739 H   0  0  0  0  0  0  0  0  0  0  0  0
    4.7888    0.4514    0.9733 H   0  0  0  0  0  0  0  0  0  0  0  0
   -3.1991   -1.0615   -2.9668 H   0  0  0  0  0  0  0  0  0  0  0  0
   -3.4728   -1.4390    0.0257 H   0  0  0  0  0  0  0  0  0  0  0  0
   -3.0721   -2.6870   -1.1961 H   0  0  0  0  0  0  0  0  0  0  0  0
   -3.9498    0.9782   -0.8328 H   0  0  0  0  0  0  0  0  0  0  0  0
   -4.3092    1.0569   -2.5652 H   0  0  0  0  0  0  0  0  0  0  0  0
   -5.5521    0.1774    0.6507 H   0  0  0  0  0  0  0  0  0  0  0  0
   -7.6751   -1.0174    1.1223 H   0  0  0  0  0  0  0  0  0  0  0  0
   -8.8749   -2.2048   -0.7130 H   0  0  0  0  0  0  0  0  0  0  0  0
   -7.9308   -2.1838   -3.0164 H   0  0  0  0  0  0  0  0  0  0  0  0
   -5.8113   -0.9855   -3.4830 H   0  0  0  0  0  0  0  0  0  0  0  0
    2.8921   -3.3203   -1.7741 H   0  0  0  0  0  0  0  0  0  0  0  0
    3.4521   -0.9972   -3.4324 H   0  0  0  0  0  0  0  0  0  0  0  0
    2.0669   -2.1104   -3.6796 H   0  0  0  0  0  0  0  0  0  0  0  0
    5.0854   -2.1151   -1.9066 H   0  0  0  0  0  0  0  0  0  0  0  0
    4.3661   -0.7534   -1.0215 H   0  0  0  0  0  0  0  0  0  0  0  0
    6.1355   -3.8695   -0.7362 H   0  0  0  0  0  0  0  0  0  0  0  0
    6.7350   -4.9883    1.3932 H   0  0  0  0  0  0  0  0  0  0  0  0
    5.6705   -4.2656    3.5250 H   0  0  0  0  0  0  0  0  0  0  0  0
    3.9959   -2.4217    3.5018 H   0  0  0  0  0  0  0  0  0  0  0  0
    3.3788   -1.3250    1.3552 H   0  0  0  0  0  0  0  0  0  0  0  0
  1  2  1  0  0  0  0
  1 15  1  0  0  0  0
  1 48  1  0  0  0  0
  1 49  1  0  0  0  0
  2  3  1  0  0  0  0
  2 25  1  0  0  0  0
  2 37  1  0  0  0  0
  3  5  1  0  0  0  0
  3 50  1  0  0  0  0
  3 51  1  0  0  0  0
  4  5  2  0  0  0  0
  4 13  1  0  0  0  0
  5  6  1  0  0  0  0
  6  7  2  0  0  0  0
  6 52  1  0  0  0  0
  7  8  1  0  0  0  0
  7 53  1  0  0  0  0
  8  9  2  0  0  0  0
  8 13  1  0  0  0  0
  9 10  1  0  0  0  0
  9 54  1  0  0  0  0
 10 11  2  0  0  0  0
 10 55  1  0  0  0  0
 11 12  1  0  0  0  0
 11 56  1  0  0  0  0
 12 13  2  0  0  0  0
 12 57  1  0  0  0  0
 14 15  2  0  0  0  0
 14 23  1  0  0  0  0
 15 16  1  0  0  0  0
 16 17  2  0  0  0  0
 16 58  1  0  0  0  0
 17 18  1  0  0  0  0
 17 59  1  0  0  0  0
 18 19  2  0  0  0  0
 18 23  1  0  0  0  0
 19 20  1  0  0  0  0
 19 60  1  0  0  0  0
 20 21  2  0  0  0  0
 20 61  1  0  0  0  0
 21 22  1  0  0  0  0
 21 62  1  0  0  0  0
 22 23  2  0  0  0  0
 22 63  1  0  0  0  0
 24 25  1  0  0  0  0
 24 28  1  0  0  0  0
 25 26  2  0  0  0  0
 26 27  1  0  0  0  0
 27 28  1  0  0  0  0
 27 29  1  0  0  0  0
 27 64  1  6  0  0  0
 28 65  1  0  0  0  0
 28 66  1  0  0  0  0
 29 30  1  0  0  0  0
 29 67  1  0  0  0  0
 29 68  1  0  0  0  0
 30 31  2  0  0  0  0
 30 35  1  0  0  0  0
 31 32  1  0  0  0  0
 31 69  1  0  0  0  0
 32 33  2  0  0  0  0
 32 70  1  0  0  0  0
 33 34  1  0  0  0  0
 33 71  1  0  0  0  0
 34 35  2  0  0  0  0
 34 72  1  0  0  0  0
 35 73  1  0  0  0  0
 36 37  1  0  0  0  0
 36 40  1  0  0  0  0
 37 38  2  0  0  0  0
 38 39  1  0  0  0  0
 39 40  1  0  0  0  0
 39 41  1  0  0  0  0
 39 74  1  6  0  0  0
 40 75  1  0  0  0  0
 40 76  1  0  0  0  0
 41 42  1  0  0  0  0
 41 77  1  0  0  0  0
 41 78  1  0  0  0  0
 42 43  2  0  0  0  0
 42 47  1  0  0  0  0
 43 44  1  0  0  0  0
 43 79  1  0  0  0  0
 44 45  2  0  0  0  0
 44 80  1  0  0  0  0
 45 46  1  0  0  0  0
 45 81  1  0  0  0  0
 46 47  2  0  0  0  0
 46 82  1  0  0  0  0
 47 83  1  0  0  0  0
M  END
$$$$
