Title Card Required
 OpenBabel03192317573D

 63 67  0  0  1  0  0  0  0  0999 V2000
   -1.3230   -3.0676   -2.0703 C   0  0  0  0  0  0  0  0  0  0  0  0
   -1.9001   -1.7873   -1.8033 O   0  0  0  0  0  0  0  0  0  0  0  0
   -1.5385   -1.4876   -0.5276 C   0  0  0  0  0  0  0  0  0  0  0  0
   -2.1064   -0.1947    0.0073 C   0  0  0  0  0  0  0  0  0  0  0  0
   -1.5600    0.0265    1.4318 C   0  0  0  0  0  0  0  0  0  0  0  0
   -2.2801    1.1174    2.2295 C   0  0  0  0  0  0  0  0  0  0  0  0
   -3.4596    0.5783    3.0452 C   0  0  0  0  0  0  0  0  0  0  0  0
   -4.6657    0.0975    2.2378 C   0  0  0  0  0  0  0  0  0  0  0  0
   -4.3654   -0.8679    1.0858 C   0  0  0  0  0  0  0  0  0  0  0  0
   -3.6466   -0.1941   -0.0880 C   0  0  0  0  0  0  0  0  0  0  0  0
   -1.5035    0.8566   -0.9140 C   0  0  0  0  0  0  0  0  0  0  0  0
   -0.2581    1.0331   -1.0741 N   0  0  0  0  0  0  0  0  0  0  0  0
   -0.1046    2.1962   -1.9464 C   0  0  2  0  0  0  0  0  0  0  0  0
    0.3745    3.4078   -1.1300 C   0  0  0  0  0  0  0  0  0  0  0  0
   -1.5253    2.3957   -2.5141 C   0  0  0  0  0  0  0  0  0  0  0  0
   -2.3465    1.6565   -1.6043 O   0  0  0  0  0  0  0  0  0  0  0  0
   -0.7097   -2.2493    0.0480 N   0  0  0  0  0  0  0  0  0  0  0  0
   -0.2433   -3.1848   -0.9791 C   0  0  2  0  0  0  0  0  0  0  0  0
    1.1260   -2.7092   -1.4972 C   0  0  0  0  0  0  0  0  0  0  0  0
    2.1671   -2.5702   -0.4172 C   0  0  0  0  0  0  0  0  0  0  0  0
    2.9499   -3.6657   -0.0397 C   0  0  0  0  0  0  0  0  0  0  0  0
    3.8910   -3.5534    0.9831 C   0  0  0  0  0  0  0  0  0  0  0  0
    4.0601   -2.3360    1.6402 C   0  0  0  0  0  0  0  0  0  0  0  0
    3.2856   -1.2367    1.2679 C   0  0  0  0  0  0  0  0  0  0  0  0
    2.3436   -1.3497    0.2468 C   0  0  0  0  0  0  0  0  0  0  0  0
    1.6274    3.1284   -0.3419 C   0  0  0  0  0  0  0  0  0  0  0  0
    2.8877    3.2095   -0.9415 C   0  0  0  0  0  0  0  0  0  0  0  0
    4.0422    2.9081   -0.2201 C   0  0  0  0  0  0  0  0  0  0  0  0
    3.9499    2.5270    1.1174 C   0  0  0  0  0  0  0  0  0  0  0  0
    2.6974    2.4433    1.7259 C   0  0  0  0  0  0  0  0  0  0  0  0
    1.5463    2.7365    0.9985 C   0  0  0  0  0  0  0  0  0  0  0  0
   -0.9244   -3.0728   -3.0929 H   0  0  0  0  0  0  0  0  0  0  0  0
   -2.1070   -3.8353   -1.9750 H   0  0  0  0  0  0  0  0  0  0  0  0
   -1.6221   -0.9288    1.9717 H   0  0  0  0  0  0  0  0  0  0  0  0
   -0.4862    0.2364    1.3334 H   0  0  0  0  0  0  0  0  0  0  0  0
   -1.5618    1.5685    2.9311 H   0  0  0  0  0  0  0  0  0  0  0  0
   -2.6107    1.9370    1.5654 H   0  0  0  0  0  0  0  0  0  0  0  0
   -3.0838   -0.2561    3.6620 H   0  0  0  0  0  0  0  0  0  0  0  0
   -3.8013    1.3506    3.7523 H   0  0  0  0  0  0  0  0  0  0  0  0
   -5.3801   -0.3737    2.9311 H   0  0  0  0  0  0  0  0  0  0  0  0
   -5.1872    0.9726    1.8124 H   0  0  0  0  0  0  0  0  0  0  0  0
   -3.7934   -1.7409    1.4446 H   0  0  0  0  0  0  0  0  0  0  0  0
   -5.3238   -1.2652    0.7191 H   0  0  0  0  0  0  0  0  0  0  0  0
   -3.9918    0.8463   -0.1639 H   0  0  0  0  0  0  0  0  0  0  0  0
   -3.9205   -0.6682   -1.0407 H   0  0  0  0  0  0  0  0  0  0  0  0
    0.6289    1.9770   -2.7365 H   0  0  0  0  0  0  0  0  0  0  0  0
    0.5343    4.2523   -1.8192 H   0  0  0  0  0  0  0  0  0  0  0  0
   -0.4392    3.6932   -0.4431 H   0  0  0  0  0  0  0  0  0  0  0  0
   -1.8579    3.4419   -2.5224 H   0  0  0  0  0  0  0  0  0  0  0  0
   -1.6468    1.9627   -3.5183 H   0  0  0  0  0  0  0  0  0  0  0  0
   -0.1615   -4.2016   -0.5688 H   0  0  0  0  0  0  0  0  0  0  0  0
    1.4692   -3.4180   -2.2680 H   0  0  0  0  0  0  0  0  0  0  0  0
    0.9677   -1.7325   -1.9843 H   0  0  0  0  0  0  0  0  0  0  0  0
    2.8236   -4.6206   -0.5574 H   0  0  0  0  0  0  0  0  0  0  0  0
    4.4963   -4.4174    1.2632 H   0  0  0  0  0  0  0  0  0  0  0  0
    4.7982   -2.2418    2.4386 H   0  0  0  0  0  0  0  0  0  0  0  0
    3.4153   -0.2773    1.7706 H   0  0  0  0  0  0  0  0  0  0  0  0
    1.7341   -0.4868   -0.0422 H   0  0  0  0  0  0  0  0  0  0  0  0
    2.9667    3.5163   -1.9879 H   0  0  0  0  0  0  0  0  0  0  0  0
    5.0182    2.9768   -0.7031 H   0  0  0  0  0  0  0  0  0  0  0  0
    4.8527    2.2936    1.6843 H   0  0  0  0  0  0  0  0  0  0  0  0
    2.6158    2.1447    2.7728 H   0  0  0  0  0  0  0  0  0  0  0  0
    0.5649    2.6602    1.4729 H   0  0  0  0  0  0  0  0  0  0  0  0
  1  2  1  0  0  0  0
  1 18  1  0  0  0  0
  1 32  1  0  0  0  0
  1 33  1  0  0  0  0
  2  3  1  0  0  0  0
  3  4  1  0  0  0  0
  3 17  2  0  0  0  0
  4  5  1  0  0  0  0
  4 10  1  0  0  0  0
  4 11  1  0  0  0  0
  5  6  1  0  0  0  0
  5 34  1  0  0  0  0
  5 35  1  0  0  0  0
  6  7  1  0  0  0  0
  6 36  1  0  0  0  0
  6 37  1  0  0  0  0
  7  8  1  0  0  0  0
  7 38  1  0  0  0  0
  7 39  1  0  0  0  0
  8  9  1  0  0  0  0
  8 40  1  0  0  0  0
  8 41  1  0  0  0  0
  9 10  1  0  0  0  0
  9 42  1  0  0  0  0
  9 43  1  0  0  0  0
 10 44  1  0  0  0  0
 10 45  1  0  0  0  0
 11 12  2  0  0  0  0
 11 16  1  0  0  0  0
 12 13  1  0  0  0  0
 13 14  1  0  0  0  0
 13 15  1  0  0  0  0
 13 46  1  6  0  0  0
 14 26  1  0  0  0  0
 14 47  1  0  0  0  0
 14 48  1  0  0  0  0
 15 16  1  0  0  0  0
 15 49  1  0  0  0  0
 15 50  1  0  0  0  0
 17 18  1  0  0  0  0
 18 19  1  0  0  0  0
 18 51  1  1  0  0  0
 19 20  1  0  0  0  0
 19 52  1  0  0  0  0
 19 53  1  0  0  0  0
 20 21  2  0  0  0  0
 20 25  1  0  0  0  0
 21 22  1  0  0  0  0
 21 54  1  0  0  0  0
 22 23  2  0  0  0  0
 22 55  1  0  0  0  0
 23 24  1  0  0  0  0
 23 56  1  0  0  0  0
 24 25  2  0  0  0  0
 24 57  1  0  0  0  0
 25 58  1  0  0  0  0
 26 27  2  0  0  0  0
 26 31  1  0  0  0  0
 27 28  1  0  0  0  0
 27 59  1  0  0  0  0
 28 29  2  0  0  0  0
 28 60  1  0  0  0  0
 29 30  1  0  0  0  0
 29 61  1  0  0  0  0
 30 31  2  0  0  0  0
 30 62  1  0  0  0  0
 31 63  1  0  0  0  0
M  END
$$$$
