Title Card Required
 OpenBabel03192317563D

 72 78  0  0  1  0  0  0  0  0999 V2000
   -1.3910   -1.5676   -0.4663 O   0  0  0  0  0  0  0  0  0  0  0  0
   -0.2375   -1.3330    0.1987 C   0  0  0  0  0  0  0  0  0  0  0  0
   -0.2656   -0.4906    1.1437 N   0  0  0  0  0  0  0  0  0  0  0  0
   -1.6433   -0.0505    1.3075 C   0  0  2  0  0  0  0  0  0  0  0  0
   -2.4081   -0.6917    0.0768 C   0  0  0  0  0  0  0  0  0  0  0  0
   -3.5897   -1.5456    0.5019 C   0  0  0  0  0  0  0  0  0  0  0  0
   -4.4195   -1.1588    1.5579 C   0  0  0  0  0  0  0  0  0  0  0  0
   -5.5405   -1.9183    1.8935 C   0  0  0  0  0  0  0  0  0  0  0  0
   -5.8394   -3.0775    1.1810 C   0  0  0  0  0  0  0  0  0  0  0  0
   -5.0116   -3.4728    0.1303 C   0  0  0  0  0  0  0  0  0  0  0  0
   -3.8957   -2.7107   -0.2091 C   0  0  0  0  0  0  0  0  0  0  0  0
   -2.7673    0.2935   -1.0331 C   0  0  0  0  0  0  0  0  0  0  0  0
   -4.0527    0.3852   -1.5699 C   0  0  0  0  0  0  0  0  0  0  0  0
   -4.3337    1.3076   -2.5805 C   0  0  0  0  0  0  0  0  0  0  0  0
   -3.3312    2.1414   -3.0646 C   0  0  0  0  0  0  0  0  0  0  0  0
   -2.0421    2.0509   -2.5350 C   0  0  0  0  0  0  0  0  0  0  0  0
   -1.7612    1.1363   -1.5264 C   0  0  0  0  0  0  0  0  0  0  0  0
   -1.7523    1.4427    1.5569 C   0  0  0  0  0  0  0  0  0  0  0  0
   -2.9532    2.1422    1.3870 C   0  0  0  0  0  0  0  0  0  0  0  0
   -3.0320    3.5009    1.6851 C   0  0  0  0  0  0  0  0  0  0  0  0
   -1.9130    4.1813    2.1638 C   0  0  0  0  0  0  0  0  0  0  0  0
   -0.7179    3.4891    2.3469 C   0  0  0  0  0  0  0  0  0  0  0  0
   -0.6376    2.1292    2.0480 C   0  0  0  0  0  0  0  0  0  0  0  0
    0.9302   -2.1338   -0.2315 C   0  0  0  0  0  0  0  0  0  0  0  0
    2.2618   -1.7556    0.0626 C   0  0  0  0  0  0  0  0  0  0  0  0
    3.2841   -2.6274   -0.3296 C   0  0  0  0  0  0  0  0  0  0  0  0
    3.0121   -3.8212   -0.9996 C   0  0  0  0  0  0  0  0  0  0  0  0
    1.7017   -4.1662   -1.3115 C   0  0  0  0  0  0  0  0  0  0  0  0
    0.6671   -3.3177   -0.9290 C   0  0  0  0  0  0  0  0  0  0  0  0
    2.6480   -0.1522    0.9313 P   0  0  0  0  0  0  0  0  0  0  0  0
    4.4884   -0.1017    0.7228 C   0  0  0  0  0  0  0  0  0  0  0  0
    5.1568    0.3761   -0.4115 C   0  0  0  0  0  0  0  0  0  0  0  0
    6.5503    0.3745   -0.4643 C   0  0  0  0  0  0  0  0  0  0  0  0
    7.2947   -0.1077    0.6120 C   0  0  0  0  0  0  0  0  0  0  0  0
    6.6404   -0.5798    1.7491 C   0  0  0  0  0  0  0  0  0  0  0  0
    5.2473   -0.5653    1.8060 C   0  0  0  0  0  0  0  0  0  0  0  0
    2.1383    1.0402   -0.3915 C   0  0  0  0  0  0  0  0  0  0  0  0
    1.9772    2.3786   -0.0138 C   0  0  0  0  0  0  0  0  0  0  0  0
    1.6250    3.3496   -0.9500 C   0  0  0  0  0  0  0  0  0  0  0  0
    1.4370    2.9936   -2.2847 C   0  0  0  0  0  0  0  0  0  0  0  0
    1.5928    1.6634   -2.6742 C   0  0  0  0  0  0  0  0  0  0  0  0
    1.9385    0.6923   -1.7344 C   0  0  0  0  0  0  0  0  0  0  0  0
   -2.0188   -0.5483    2.2187 H   0  0  0  0  0  0  0  0  0  0  0  0
   -4.1952   -0.2572    2.1323 H   0  0  0  0  0  0  0  0  0  0  0  0
   -6.1776   -1.6034    2.7213 H   0  0  0  0  0  0  0  0  0  0  0  0
   -6.7133   -3.6744    1.4463 H   0  0  0  0  0  0  0  0  0  0  0  0
   -5.2370   -4.3813   -0.4304 H   0  0  0  0  0  0  0  0  0  0  0  0
   -3.2511   -3.0131   -1.0352 H   0  0  0  0  0  0  0  0  0  0  0  0
   -4.8481   -0.2613   -1.1973 H   0  0  0  0  0  0  0  0  0  0  0  0
   -5.3439    1.3695   -2.9884 H   0  0  0  0  0  0  0  0  0  0  0  0
   -3.5497    2.8643   -3.8523 H   0  0  0  0  0  0  0  0  0  0  0  0
   -1.2483    2.7027   -2.9013 H   0  0  0  0  0  0  0  0  0  0  0  0
   -0.7520    1.0943   -1.1047 H   0  0  0  0  0  0  0  0  0  0  0  0
   -3.8348    1.6353    0.9911 H   0  0  0  0  0  0  0  0  0  0  0  0
   -3.9739    4.0304    1.5344 H   0  0  0  0  0  0  0  0  0  0  0  0
   -1.9742    5.2461    2.3937 H   0  0  0  0  0  0  0  0  0  0  0  0
    0.1626    4.0102    2.7287 H   0  0  0  0  0  0  0  0  0  0  0  0
    0.2929    1.5788    2.1941 H   0  0  0  0  0  0  0  0  0  0  0  0
    4.3228   -2.3687   -0.1223 H   0  0  0  0  0  0  0  0  0  0  0  0
    3.8378   -4.4736   -1.2881 H   0  0  0  0  0  0  0  0  0  0  0  0
    1.4820   -5.0900   -1.8479 H   0  0  0  0  0  0  0  0  0  0  0  0
   -0.3684   -3.5687   -1.1577 H   0  0  0  0  0  0  0  0  0  0  0  0
    4.5856    0.7537   -1.2620 H   0  0  0  0  0  0  0  0  0  0  0  0
    7.0576    0.7530   -1.3534 H   0  0  0  0  0  0  0  0  0  0  0  0
    8.3850   -0.1083    0.5676 H   0  0  0  0  0  0  0  0  0  0  0  0
    7.2161   -0.9489    2.5996 H   0  0  0  0  0  0  0  0  0  0  0  0
    4.7361   -0.9191    2.7054 H   0  0  0  0  0  0  0  0  0  0  0  0
    2.1289    2.6648    1.0296 H   0  0  0  0  0  0  0  0  0  0  0  0
    1.4933    4.3852   -0.6328 H   0  0  0  0  0  0  0  0  0  0  0  0
    1.1667    3.7531   -3.0209 H   0  0  0  0  0  0  0  0  0  0  0  0
    1.4407    1.3763   -3.7162 H   0  0  0  0  0  0  0  0  0  0  0  0
    2.0577   -0.3442   -2.0567 H   0  0  0  0  0  0  0  0  0  0  0  0
  1  2  1  0  0  0  0
  1  5  1  0  0  0  0
  2  3  2  0  0  0  0
  2 24  1  0  0  0  0
  3  4  1  0  0  0  0
  4  5  1  0  0  0  0
  4 18  1  0  0  0  0
  4 43  1  1  0  0  0
  5  6  1  0  0  0  0
  5 12  1  0  0  0  0
  6  7  2  0  0  0  0
  6 11  1  0  0  0  0
  7  8  1  0  0  0  0
  7 44  1  0  0  0  0
  8  9  2  0  0  0  0
  8 45  1  0  0  0  0
  9 10  1  0  0  0  0
  9 46  1  0  0  0  0
 10 11  2  0  0  0  0
 10 47  1  0  0  0  0
 11 48  1  0  0  0  0
 12 13  2  0  0  0  0
 12 17  1  0  0  0  0
 13 14  1  0  0  0  0
 13 49  1  0  0  0  0
 14 15  2  0  0  0  0
 14 50  1  0  0  0  0
 15 16  1  0  0  0  0
 15 51  1  0  0  0  0
 16 17  2  0  0  0  0
 16 52  1  0  0  0  0
 17 53  1  0  0  0  0
 18 19  2  0  0  0  0
 18 23  1  0  0  0  0
 19 20  1  0  0  0  0
 19 54  1  0  0  0  0
 20 21  2  0  0  0  0
 20 55  1  0  0  0  0
 21 22  1  0  0  0  0
 21 56  1  0  0  0  0
 22 23  2  0  0  0  0
 22 57  1  0  0  0  0
 23 58  1  0  0  0  0
 24 25  2  0  0  0  0
 24 29  1  0  0  0  0
 25 26  1  0  0  0  0
 25 30  1  0  0  0  0
 26 27  2  0  0  0  0
 26 59  1  0  0  0  0
 27 28  1  0  0  0  0
 27 60  1  0  0  0  0
 28 29  2  0  0  0  0
 28 61  1  0  0  0  0
 29 62  1  0  0  0  0
 30 31  1  0  0  0  0
 30 37  1  0  0  0  0
 31 32  2  0  0  0  0
 31 36  1  0  0  0  0
 32 33  1  0  0  0  0
 32 63  1  0  0  0  0
 33 34  2  0  0  0  0
 33 64  1  0  0  0  0
 34 35  1  0  0  0  0
 34 65  1  0  0  0  0
 35 36  2  0  0  0  0
 35 66  1  0  0  0  0
 36 67  1  0  0  0  0
 37 38  2  0  0  0  0
 37 42  1  0  0  0  0
 38 39  1  0  0  0  0
 38 68  1  0  0  0  0
 39 40  2  0  0  0  0
 39 69  1  0  0  0  0
 40 41  1  0  0  0  0
 40 70  1  0  0  0  0
 41 42  2  0  0  0  0
 41 71  1  0  0  0  0
 42 72  1  0  0  0  0
M  END
$$$$
