Title Card Required
 OpenBabel03192317413D

 79 84  0  0  1  0  0  0  0  0999 V2000
    3.1223   -1.1025    1.5646 H   0  0  0  0  0  0  0  0  0  0  0  0
   -0.8083    3.7614   -1.1830 H   0  0  0  0  0  0  0  0  0  0  0  0
    1.0069   -1.9353    2.5060 H   0  0  0  0  0  0  0  0  0  0  0  0
    0.8406    3.9411   -3.0331 H   0  0  0  0  0  0  0  0  0  0  0  0
    0.3473    0.1210    2.8677 C   0  0  0  0  0  0  0  0  0  0  0  0
   -0.9255    0.1776    3.4307 C   0  0  0  0  0  0  0  0  0  0  0  0
   -1.2869    1.3057    4.1671 C   0  0  0  0  0  0  0  0  0  0  0  0
   -0.3863    2.3626    4.3303 C   0  0  0  0  0  0  0  0  0  0  0  0
    0.8846    2.3048    3.7582 C   0  0  0  0  0  0  0  0  0  0  0  0
    1.2466    1.1783    3.0198 C   0  0  0  0  0  0  0  0  0  0  0  0
    2.5566    0.8984    2.3227 C   0  0  0  0  0  0  0  0  0  0  0  0
    2.2922   -0.3835    1.5242 C   0  0  1  0  0  0  0  0  0  0  0  0
    0.9230   -0.9690    1.9872 C   0  0  2  0  0  0  0  0  0  0  0  0
    0.1350   -1.1110    0.7596 N   0  0  0  0  0  0  0  0  0  0  0  0
    0.8018   -0.5414   -0.1524 C   0  0  0  0  0  0  0  0  0  0  0  0
    2.0415   -0.0811    0.1448 O   0  0  0  0  0  0  0  0  0  0  0  0
    2.4827    3.6299   -1.6239 C   0  0  0  0  0  0  0  0  0  0  0  0
    3.7281    3.5415   -2.2405 C   0  0  0  0  0  0  0  0  0  0  0  0
    4.8681    3.8610   -1.5034 C   0  0  0  0  0  0  0  0  0  0  0  0
    4.7588    4.2556   -0.1665 C   0  0  0  0  0  0  0  0  0  0  0  0
    3.5097    4.3366    0.4491 C   0  0  0  0  0  0  0  0  0  0  0  0
    2.3690    4.0192   -0.2873 C   0  0  0  0  0  0  0  0  0  0  0  0
    0.9263    4.0437    0.1584 C   0  0  0  0  0  0  0  0  0  0  0  0
    0.1833    3.3334   -0.9762 C   0  0  1  0  0  0  0  0  0  0  0  0
    1.1311    3.2733   -2.2092 C   0  0  2  0  0  0  0  0  0  0  0  0
    1.1013    1.8730   -2.6417 N   0  0  0  0  0  0  0  0  0  0  0  0
    0.5183    1.2391   -1.7136 C   0  0  0  0  0  0  0  0  0  0  0  0
    0.0087    1.9454   -0.6746 O   0  0  0  0  0  0  0  0  0  0  0  0
   -8.8236   -0.7304   -0.1163 Br  0  0  0  0  0  0  0  0  0  0  0  0
    3.7210   -4.0540    1.5088 Br  0  0  0  0  0  0  0  0  0  0  0  0
    3.6590   -4.1082   -0.4451 C   0  0  0  0  0  0  0  0  0  0  0  0
    3.9953   -2.7591   -1.0495 C   0  0  0  0  0  0  0  0  0  0  0  0
    3.8966   -2.7596   -2.5784 C   0  0  0  0  0  0  0  0  0  0  0  0
    2.5198   -3.1572   -3.1271 C   0  0  0  0  0  0  0  0  0  0  0  0
    1.3347   -2.4709   -2.4442 C   0  0  0  0  0  0  0  0  0  0  0  0
    1.3685   -0.9472   -2.5372 C   0  0  0  0  0  0  0  0  0  0  0  0
    0.3785   -0.2604   -1.5759 C   0  0  0  0  0  0  0  0  0  0  0  0
   -1.0673   -0.7359   -1.8160 C   0  0  0  0  0  0  0  0  0  0  0  0
   -2.1785    0.0753   -1.1533 C   0  0  0  0  0  0  0  0  0  0  0  0
   -3.5223   -0.6396   -1.2407 C   0  0  0  0  0  0  0  0  0  0  0  0
   -4.6675    0.1578   -0.6252 C   0  0  0  0  0  0  0  0  0  0  0  0
   -6.0004   -0.5864   -0.6793 C   0  0  0  0  0  0  0  0  0  0  0  0
   -7.1227    0.2256   -0.0645 C   0  0  0  0  0  0  0  0  0  0  0  0
   -1.6282   -0.6451    3.2859 H   0  0  0  0  0  0  0  0  0  0  0  0
   -2.2794    1.3676    4.6164 H   0  0  0  0  0  0  0  0  0  0  0  0
   -0.6806    3.2393    4.9097 H   0  0  0  0  0  0  0  0  0  0  0  0
    1.5866    3.1323    3.8854 H   0  0  0  0  0  0  0  0  0  0  0  0
    3.3683    0.7476    3.0511 H   0  0  0  0  0  0  0  0  0  0  0  0
    2.8655    1.7083    1.6438 H   0  0  0  0  0  0  0  0  0  0  0  0
    3.8048    3.2122   -3.2783 H   0  0  0  0  0  0  0  0  0  0  0  0
    5.8527    3.7954   -1.9690 H   0  0  0  0  0  0  0  0  0  0  0  0
    5.6587    4.4998    0.4003 H   0  0  0  0  0  0  0  0  0  0  0  0
    3.4281    4.6416    1.4949 H   0  0  0  0  0  0  0  0  0  0  0  0
    0.5653    5.0783    0.2702 H   0  0  0  0  0  0  0  0  0  0  0  0
    0.7534    3.5265    1.1145 H   0  0  0  0  0  0  0  0  0  0  0  0
    2.6429   -4.4384   -0.6885 H   0  0  0  0  0  0  0  0  0  0  0  0
    4.3701   -4.8875   -0.7451 H   0  0  0  0  0  0  0  0  0  0  0  0
    5.0130   -2.4732   -0.7433 H   0  0  0  0  0  0  0  0  0  0  0  0
    3.3204   -1.9936   -0.6355 H   0  0  0  0  0  0  0  0  0  0  0  0
    4.6575   -3.4368   -2.9996 H   0  0  0  0  0  0  0  0  0  0  0  0
    4.1637   -1.7514   -2.9305 H   0  0  0  0  0  0  0  0  0  0  0  0
    2.3886   -4.2485   -3.0407 H   0  0  0  0  0  0  0  0  0  0  0  0
    2.4962   -2.9403   -4.2074 H   0  0  0  0  0  0  0  0  0  0  0  0
    1.2960   -2.7695   -1.3813 H   0  0  0  0  0  0  0  0  0  0  0  0
    0.4031   -2.8518   -2.8900 H   0  0  0  0  0  0  0  0  0  0  0  0
    1.1434   -0.6098   -3.5602 H   0  0  0  0  0  0  0  0  0  0  0  0
    2.3714   -0.5614   -2.3035 H   0  0  0  0  0  0  0  0  0  0  0  0
   -1.2308   -0.7649   -2.9064 H   0  0  0  0  0  0  0  0  0  0  0  0
   -1.1275   -1.7721   -1.4498 H   0  0  0  0  0  0  0  0  0  0  0  0
   -1.9221    0.2545   -0.0987 H   0  0  0  0  0  0  0  0  0  0  0  0
   -2.2582    1.0670   -1.6297 H   0  0  0  0  0  0  0  0  0  0  0  0
   -3.7597   -0.8652   -2.2955 H   0  0  0  0  0  0  0  0  0  0  0  0
   -3.4439   -1.6142   -0.7288 H   0  0  0  0  0  0  0  0  0  0  0  0
   -4.4188    0.3969    0.4233 H   0  0  0  0  0  0  0  0  0  0  0  0
   -4.7622    1.1261   -1.1468 H   0  0  0  0  0  0  0  0  0  0  0  0
   -6.2552   -0.8261   -1.7239 H   0  0  0  0  0  0  0  0  0  0  0  0
   -5.9148   -1.5473   -0.1478 H   0  0  0  0  0  0  0  0  0  0  0  0
   -6.9357    0.4474    0.9929 H   0  0  0  0  0  0  0  0  0  0  0  0
   -7.2911    1.1670   -0.6009 H   0  0  0  0  0  0  0  0  0  0  0  0
  5  6  2  0  0  0  0
  5 10  1  0  0  0  0
  5 13  1  0  0  0  0
  6  7  1  0  0  0  0
  6 44  1  0  0  0  0
  7  8  2  0  0  0  0
  7 45  1  0  0  0  0
  8  9  1  0  0  0  0
  8 46  1  0  0  0  0
  9 10  2  0  0  0  0
  9 47  1  0  0  0  0
 10 11  1  0  0  0  0
 11 12  1  0  0  0  0
 11 48  1  0  0  0  0
 11 49  1  0  0  0  0
 12  1  1  1  0  0  0
 12 13  1  0  0  0  0
 12 16  1  0  0  0  0
 13  3  1  1  0  0  0
 13 14  1  0  0  0  0
 14 15  2  0  0  0  0
 15 16  1  0  0  0  0
 15 37  1  0  0  0  0
 17 18  2  0  0  0  0
 17 22  1  0  0  0  0
 17 25  1  0  0  0  0
 18 19  1  0  0  0  0
 18 50  1  0  0  0  0
 19 20  2  0  0  0  0
 19 51  1  0  0  0  0
 20 21  1  0  0  0  0
 20 52  1  0  0  0  0
 21 22  2  0  0  0  0
 21 53  1  0  0  0  0
 22 23  1  0  0  0  0
 23 24  1  0  0  0  0
 23 54  1  0  0  0  0
 23 55  1  0  0  0  0
 24  2  1  6  0  0  0
 24 25  1  0  0  0  0
 24 28  1  0  0  0  0
 25  4  1  6  0  0  0
 25 26  1  0  0  0  0
 26 27  2  0  0  0  0
 27 28  1  0  0  0  0
 27 37  1  0  0  0  0
 29 43  1  0  0  0  0
 30 31  1  0  0  0  0
 31 32  1  0  0  0  0
 31 56  1  0  0  0  0
 31 57  1  0  0  0  0
 32 33  1  0  0  0  0
 32 58  1  0  0  0  0
 32 59  1  0  0  0  0
 33 34  1  0  0  0  0
 33 60  1  0  0  0  0
 33 61  1  0  0  0  0
 34 35  1  0  0  0  0
 34 62  1  0  0  0  0
 34 63  1  0  0  0  0
 35 36  1  0  0  0  0
 35 64  1  0  0  0  0
 35 65  1  0  0  0  0
 36 37  1  0  0  0  0
 36 66  1  0  0  0  0
 36 67  1  0  0  0  0
 37 38  1  0  0  0  0
 38 39  1  0  0  0  0
 38 68  1  0  0  0  0
 38 69  1  0  0  0  0
 39 40  1  0  0  0  0
 39 70  1  0  0  0  0
 39 71  1  0  0  0  0
 40 41  1  0  0  0  0
 40 72  1  0  0  0  0
 40 73  1  0  0  0  0
 41 42  1  0  0  0  0
 41 74  1  0  0  0  0
 41 75  1  0  0  0  0
 42 43  1  0  0  0  0
 42 76  1  0  0  0  0
 42 77  1  0  0  0  0
 43 78  1  0  0  0  0
 43 79  1  0  0  0  0
M  END
$$$$
