Title Card Required
 OpenBabel03192317523D

 61 63  0  0  1  0  0  0  0  0999 V2000
   -1.3831   -2.2308   -0.7063 C   0  0  0  0  0  0  0  0  0  0  0  0
   -0.5759   -1.0751   -0.9223 O   0  0  0  0  0  0  0  0  0  0  0  0
   -0.8363   -0.2266    0.1003 C   0  0  0  0  0  0  0  0  0  0  0  0
    0.0063    1.0282    0.1208 C   0  0  0  0  0  0  0  0  0  0  0  0
   -0.4567    1.9455    1.2789 C   0  0  0  0  0  0  0  0  0  0  0  0
   -0.1006    3.4300    1.1463 C   0  0  0  0  0  0  0  0  0  0  0  0
   -1.1523    4.2364    0.3765 C   0  0  0  0  0  0  0  0  0  0  0  0
   -1.2298    3.9704   -1.1266 C   0  0  0  0  0  0  0  0  0  0  0  0
   -1.3389    2.4982   -1.5331 C   0  0  0  0  0  0  0  0  0  0  0  0
   -0.0535    1.7073   -1.2674 C   0  0  0  0  0  0  0  0  0  0  0  0
    1.4234    0.5828    0.3934 C   0  0  0  0  0  0  0  0  0  0  0  0
    1.7813   -0.5431    0.8471 N   0  0  0  0  0  0  0  0  0  0  0  0
    3.2437   -0.5514    0.8764 C   0  0  1  0  0  0  0  0  0  0  0  0
    3.8014   -1.5737   -0.1456 C   0  0  0  0  0  0  0  0  0  0  0  0
    3.6133    0.9263    0.5993 C   0  0  0  0  0  0  0  0  0  0  0  0
    2.3865    1.5038    0.1464 O   0  0  0  0  0  0  0  0  0  0  0  0
   -1.7483   -0.5441    0.9177 N   0  0  0  0  0  0  0  0  0  0  0  0
   -2.2873   -1.8351    0.4904 C   0  0  1  0  0  0  0  0  0  0  0  0
   -3.8009   -1.7489    0.1844 C   0  0  0  0  0  0  0  0  0  0  0  0
   -4.0679   -0.7025   -0.9002 C   0  0  0  0  0  0  0  0  0  0  0  0
   -4.3005   -3.1239   -0.2694 C   0  0  0  0  0  0  0  0  0  0  0  0
   -4.5290   -1.3468    1.4704 C   0  0  0  0  0  0  0  0  0  0  0  0
    3.3228   -1.2271   -1.5590 C   0  0  0  0  0  0  0  0  0  0  0  0
    5.3313   -1.5658   -0.0837 C   0  0  0  0  0  0  0  0  0  0  0  0
    3.2860   -2.9644    0.2355 C   0  0  0  0  0  0  0  0  0  0  0  0
   -0.7244   -3.0795   -0.4746 H   0  0  0  0  0  0  0  0  0  0  0  0
   -1.9356   -2.4495   -1.6304 H   0  0  0  0  0  0  0  0  0  0  0  0
   -1.5474    1.8393    1.3683 H   0  0  0  0  0  0  0  0  0  0  0  0
   -0.0520    1.5249    2.2114 H   0  0  0  0  0  0  0  0  0  0  0  0
   -0.0280    3.8518    2.1601 H   0  0  0  0  0  0  0  0  0  0  0  0
    0.8971    3.5523    0.6941 H   0  0  0  0  0  0  0  0  0  0  0  0
   -2.1370    4.0289    0.8303 H   0  0  0  0  0  0  0  0  0  0  0  0
   -0.9678    5.3116    0.5291 H   0  0  0  0  0  0  0  0  0  0  0  0
   -2.0877    4.5268   -1.5362 H   0  0  0  0  0  0  0  0  0  0  0  0
   -0.3326    4.3899   -1.6140 H   0  0  0  0  0  0  0  0  0  0  0  0
   -2.1952    2.0198   -1.0260 H   0  0  0  0  0  0  0  0  0  0  0  0
   -1.5623    2.4536   -2.6094 H   0  0  0  0  0  0  0  0  0  0  0  0
    0.8100    2.3806   -1.3578 H   0  0  0  0  0  0  0  0  0  0  0  0
    0.0833    0.9220   -2.0237 H   0  0  0  0  0  0  0  0  0  0  0  0
    3.5896   -0.8607    1.8758 H   0  0  0  0  0  0  0  0  0  0  0  0
    3.9331    1.4578    1.5075 H   0  0  0  0  0  0  0  0  0  0  0  0
    4.3730    1.0642   -0.1810 H   0  0  0  0  0  0  0  0  0  0  0  0
   -2.1654   -2.5545    1.3168 H   0  0  0  0  0  0  0  0  0  0  0  0
   -3.5068   -0.9126   -1.8248 H   0  0  0  0  0  0  0  0  0  0  0  0
   -5.1380   -0.6810   -1.1559 H   0  0  0  0  0  0  0  0  0  0  0  0
   -3.7805    0.2981   -0.5468 H   0  0  0  0  0  0  0  0  0  0  0  0
   -4.0814   -3.8923    0.4886 H   0  0  0  0  0  0  0  0  0  0  0  0
   -5.3902   -3.1015   -0.4201 H   0  0  0  0  0  0  0  0  0  0  0  0
   -3.8432   -3.4394   -1.2194 H   0  0  0  0  0  0  0  0  0  0  0  0
   -4.3853   -2.1069    2.2541 H   0  0  0  0  0  0  0  0  0  0  0  0
   -4.1416   -0.3912    1.8484 H   0  0  0  0  0  0  0  0  0  0  0  0
   -5.6097   -1.2471    1.2870 H   0  0  0  0  0  0  0  0  0  0  0  0
    3.6413   -0.2178   -1.8656 H   0  0  0  0  0  0  0  0  0  0  0  0
    3.7389   -1.9411   -2.2858 H   0  0  0  0  0  0  0  0  0  0  0  0
    2.2252   -1.2761   -1.6180 H   0  0  0  0  0  0  0  0  0  0  0  0
    5.6872   -1.7904    0.9342 H   0  0  0  0  0  0  0  0  0  0  0  0
    5.7426   -2.3294   -0.7606 H   0  0  0  0  0  0  0  0  0  0  0  0
    5.7542   -0.5962   -0.3882 H   0  0  0  0  0  0  0  0  0  0  0  0
    3.6266   -3.2474    1.2439 H   0  0  0  0  0  0  0  0  0  0  0  0
    2.1880   -2.9781    0.2297 H   0  0  0  0  0  0  0  0  0  0  0  0
    3.6582   -3.7187   -0.4743 H   0  0  0  0  0  0  0  0  0  0  0  0
  1  2  1  0  0  0  0
  1 18  1  0  0  0  0
  1 26  1  0  0  0  0
  1 27  1  0  0  0  0
  2  3  1  0  0  0  0
  3  4  1  0  0  0  0
  3 17  2  0  0  0  0
  4  5  1  0  0  0  0
  4 10  1  0  0  0  0
  4 11  1  0  0  0  0
  5  6  1  0  0  0  0
  5 28  1  0  0  0  0
  5 29  1  0  0  0  0
  6  7  1  0  0  0  0
  6 30  1  0  0  0  0
  6 31  1  0  0  0  0
  7  8  1  0  0  0  0
  7 32  1  0  0  0  0
  7 33  1  0  0  0  0
  8  9  1  0  0  0  0
  8 34  1  0  0  0  0
  8 35  1  0  0  0  0
  9 10  1  0  0  0  0
  9 36  1  0  0  0  0
  9 37  1  0  0  0  0
 10 38  1  0  0  0  0
 10 39  1  0  0  0  0
 11 12  2  0  0  0  0
 11 16  1  0  0  0  0
 12 13  1  0  0  0  0
 13 14  1  0  0  0  0
 13 15  1  0  0  0  0
 13 40  1  1  0  0  0
 14 23  1  0  0  0  0
 14 24  1  0  0  0  0
 14 25  1  0  0  0  0
 15 16  1  0  0  0  0
 15 41  1  0  0  0  0
 15 42  1  0  0  0  0
 17 18  1  0  0  0  0
 18 19  1  0  0  0  0
 18 43  1  1  0  0  0
 19 20  1  0  0  0  0
 19 21  1  0  0  0  0
 19 22  1  0  0  0  0
 20 44  1  0  0  0  0
 20 45  1  0  0  0  0
 20 46  1  0  0  0  0
 21 47  1  0  0  0  0
 21 48  1  0  0  0  0
 21 49  1  0  0  0  0
 22 50  1  0  0  0  0
 22 51  1  0  0  0  0
 22 52  1  0  0  0  0
 23 53  1  0  0  0  0
 23 54  1  0  0  0  0
 23 55  1  0  0  0  0
 24 56  1  0  0  0  0
 24 57  1  0  0  0  0
 24 58  1  0  0  0  0
 25 59  1  0  0  0  0
 25 60  1  0  0  0  0
 25 61  1  0  0  0  0
M  END
$$$$
