Title Card Required
 OpenBabel03192317503D

 50 56  0  0  1  0  0  0  0  0999 V2000
   -1.1340    3.0198    0.4137 C   0  0  0  0  0  0  0  0  0  0  0  0
   -1.1314    1.6201    0.4180 C   0  0  0  0  0  0  0  0  0  0  0  0
    0.0002    0.9186    0.0001 C   0  0  0  0  0  0  0  0  0  0  0  0
    1.1319    1.6199   -0.4179 C   0  0  0  0  0  0  0  0  0  0  0  0
    1.1348    3.0196   -0.4136 C   0  0  0  0  0  0  0  0  0  0  0  0
    0.0004    3.7140    0.0000 C   0  0  0  0  0  0  0  0  0  0  0  0
   -2.3173    0.8672    0.8694 C   0  0  0  0  0  0  0  0  0  0  0  0
    2.3176    0.8668   -0.8694 C   0  0  0  0  0  0  0  0  0  0  0  0
   -3.4222    1.6081    1.1374 O   0  0  0  0  0  0  0  0  0  0  0  0
   -4.4260    0.7112    1.6278 C   0  0  2  0  0  0  0  0  0  0  0  0
   -3.7608   -0.6837    1.4165 C   0  0  2  0  0  0  0  0  0  0  0  0
   -2.3850   -0.3900    1.0265 N   0  0  0  0  0  0  0  0  0  0  0  0
    2.3849   -0.3903   -1.0272 N   0  0  0  0  0  0  0  0  0  0  0  0
    3.7608   -0.6842   -1.4169 C   0  0  1  0  0  0  0  0  0  0  0  0
    4.4261    0.7105   -1.6283 C   0  0  1  0  0  0  0  0  0  0  0  0
    3.4229    1.6074   -1.1368 O   0  0  0  0  0  0  0  0  0  0  0  0
    5.6996    0.7574   -0.7709 C   0  0  0  0  0  0  0  0  0  0  0  0
    5.6164   -0.4777    0.0962 C   0  0  0  0  0  0  0  0  0  0  0  0
    4.5530   -1.2976   -0.2835 C   0  0  0  0  0  0  0  0  0  0  0  0
   -4.5534   -1.2973    0.2835 C   0  0  0  0  0  0  0  0  0  0  0  0
   -5.6164   -0.4771   -0.0966 C   0  0  0  0  0  0  0  0  0  0  0  0
   -5.6989    0.7586    0.7697 C   0  0  0  0  0  0  0  0  0  0  0  0
    6.4469   -0.8553    1.1510 C   0  0  0  0  0  0  0  0  0  0  0  0
    6.1927   -2.0532    1.8186 C   0  0  0  0  0  0  0  0  0  0  0  0
    5.1194   -2.8658    1.4402 C   0  0  0  0  0  0  0  0  0  0  0  0
    4.2886   -2.4897    0.3860 C   0  0  0  0  0  0  0  0  0  0  0  0
   -4.2896   -2.4899   -0.3852 C   0  0  0  0  0  0  0  0  0  0  0  0
   -5.1207   -2.8664   -1.4391 C   0  0  0  0  0  0  0  0  0  0  0  0
   -6.1936   -2.0536   -1.8179 C   0  0  0  0  0  0  0  0  0  0  0  0
   -6.4472   -0.8550   -1.1511 C   0  0  0  0  0  0  0  0  0  0  0  0
   -2.0284    3.5514    0.7389 H   0  0  0  0  0  0  0  0  0  0  0  0
    0.0001   -0.1722    0.0001 H   0  0  0  0  0  0  0  0  0  0  0  0
    2.0293    3.5511   -0.7388 H   0  0  0  0  0  0  0  0  0  0  0  0
    0.0005    4.8045    0.0000 H   0  0  0  0  0  0  0  0  0  0  0  0
   -4.6126    0.9649    2.6803 H   0  0  0  0  0  0  0  0  0  0  0  0
   -3.7704   -1.3201    2.3143 H   0  0  0  0  0  0  0  0  0  0  0  0
    3.7707   -1.3208   -2.3145 H   0  0  0  0  0  0  0  0  0  0  0  0
    4.6120    0.9645   -2.6809 H   0  0  0  0  0  0  0  0  0  0  0  0
    6.5984    0.7365   -1.4064 H   0  0  0  0  0  0  0  0  0  0  0  0
    5.7305    1.6890   -0.1876 H   0  0  0  0  0  0  0  0  0  0  0  0
   -5.7286    1.6898    0.1856 H   0  0  0  0  0  0  0  0  0  0  0  0
   -6.5982    0.7390    1.4045 H   0  0  0  0  0  0  0  0  0  0  0  0
    7.2820   -0.2209    1.4552 H   0  0  0  0  0  0  0  0  0  0  0  0
    6.8339   -2.3569    2.6477 H   0  0  0  0  0  0  0  0  0  0  0  0
    4.9285   -3.7958    1.9778 H   0  0  0  0  0  0  0  0  0  0  0  0
    3.4369   -3.1063    0.0937 H   0  0  0  0  0  0  0  0  0  0  0  0
   -3.4382   -3.1069   -0.0926 H   0  0  0  0  0  0  0  0  0  0  0  0
   -4.9303   -3.7969   -1.9760 H   0  0  0  0  0  0  0  0  0  0  0  0
   -6.8351   -2.3574   -2.6467 H   0  0  0  0  0  0  0  0  0  0  0  0
   -7.2820   -0.2205   -1.4556 H   0  0  0  0  0  0  0  0  0  0  0  0
  1  2  2  0  0  0  0
  1  6  1  0  0  0  0
  1 31  1  0  0  0  0
  2  3  1  0  0  0  0
  2  7  1  0  0  0  0
  3  4  2  0  0  0  0
  3 32  1  0  0  0  0
  4  5  1  0  0  0  0
  4  8  1  0  0  0  0
  5  6  2  0  0  0  0
  5 33  1  0  0  0  0
  6 34  1  0  0  0  0
  7  9  1  0  0  0  0
  7 12  2  0  0  0  0
  8 13  2  0  0  0  0
  8 16  1  0  0  0  0
  9 10  1  0  0  0  0
 10 11  1  0  0  0  0
 10 22  1  0  0  0  0
 10 35  1  1  0  0  0
 11 12  1  0  0  0  0
 11 20  1  0  0  0  0
 11 36  1  1  0  0  0
 13 14  1  0  0  0  0
 14 15  1  0  0  0  0
 14 19  1  0  0  0  0
 14 37  1  6  0  0  0
 15 16  1  0  0  0  0
 15 17  1  0  0  0  0
 15 38  1  6  0  0  0
 17 18  1  0  0  0  0
 17 39  1  0  0  0  0
 17 40  1  0  0  0  0
 18 19  2  0  0  0  0
 18 23  1  0  0  0  0
 19 26  1  0  0  0  0
 20 21  2  0  0  0  0
 20 27  1  0  0  0  0
 21 22  1  0  0  0  0
 21 30  1  0  0  0  0
 22 41  1  0  0  0  0
 22 42  1  0  0  0  0
 23 24  2  0  0  0  0
 23 43  1  0  0  0  0
 24 25  1  0  0  0  0
 24 44  1  0  0  0  0
 25 26  2  0  0  0  0
 25 45  1  0  0  0  0
 26 46  1  0  0  0  0
 27 28  2  0  0  0  0
 27 47  1  0  0  0  0
 28 29  1  0  0  0  0
 28 48  1  0  0  0  0
 29 30  2  0  0  0  0
 29 49  1  0  0  0  0
 30 50  1  0  0  0  0
M  END
$$$$
