Title Card Required
 OpenBabel03192317423D

 68 74  0  0  1  0  0  0  0  0999 V2000
   -0.2765   -2.8333   -0.1864 C   0  0  0  0  0  0  0  0  0  0  0  0
   -0.4977   -4.2331    0.4312 C   0  0  0  0  0  0  0  0  0  0  0  0
   -1.6300   -4.4724   -0.5902 C   0  0  0  0  0  0  0  0  0  0  0  0
   -1.0699   -3.3115   -1.4383 C   0  0  0  0  0  0  0  0  0  0  0  0
   -0.6191   -0.5004    0.2860 O   0  0  0  0  0  0  0  0  0  0  0  0
   -1.0319   -1.7642    0.5473 C   0  0  0  0  0  0  0  0  0  0  0  0
   -2.0257   -1.9127    1.3179 N   0  0  0  0  0  0  0  0  0  0  0  0
   -2.5251   -0.5704    1.6230 C   0  0  1  0  0  0  0  0  0  0  0  0
   -1.3210    0.3484    1.1981 C   0  0  2  0  0  0  0  0  0  0  0  0
   -1.6088    1.6765    0.5601 C   0  0  0  0  0  0  0  0  0  0  0  0
   -2.0528    1.7486   -0.7649 C   0  0  0  0  0  0  0  0  0  0  0  0
   -2.3538    2.9812   -1.3362 C   0  0  0  0  0  0  0  0  0  0  0  0
   -2.2145    4.1536   -0.5895 C   0  0  0  0  0  0  0  0  0  0  0  0
   -1.7660    4.0874    0.7276 C   0  0  0  0  0  0  0  0  0  0  0  0
   -1.4597    2.8514    1.2980 C   0  0  0  0  0  0  0  0  0  0  0  0
   -3.8206   -0.2741    0.8904 C   0  0  0  0  0  0  0  0  0  0  0  0
   -4.5830    0.8388    1.2645 C   0  0  0  0  0  0  0  0  0  0  0  0
   -5.7278    1.1866    0.5536 C   0  0  0  0  0  0  0  0  0  0  0  0
   -6.1330    0.4179   -0.5390 C   0  0  0  0  0  0  0  0  0  0  0  0
   -5.3916   -0.7026   -0.9047 C   0  0  0  0  0  0  0  0  0  0  0  0
   -4.2420   -1.0480   -0.1923 C   0  0  0  0  0  0  0  0  0  0  0  0
    2.9165    0.1405    1.4365 C   0  0  0  0  0  0  0  0  0  0  0  0
    3.4196    1.1632    2.2338 C   0  0  0  0  0  0  0  0  0  0  0  0
    4.7983    1.3056    2.4055 C   0  0  0  0  0  0  0  0  0  0  0  0
    5.6682    0.4158    1.7808 C   0  0  0  0  0  0  0  0  0  0  0  0
    5.1604   -0.6055    0.9762 C   0  0  0  0  0  0  0  0  0  0  0  0
    3.7857   -0.7445    0.7902 C   0  0  0  0  0  0  0  0  0  0  0  0
    3.9146    0.9587   -1.8423 C   0  0  0  0  0  0  0  0  0  0  0  0
    3.9719    2.3492   -1.8508 C   0  0  0  0  0  0  0  0  0  0  0  0
    2.8059    3.0987   -1.6837 C   0  0  0  0  0  0  0  0  0  0  0  0
    1.5841    2.4485   -1.5241 C   0  0  0  0  0  0  0  0  0  0  0  0
    1.5273    1.0537   -1.5151 C   0  0  0  0  0  0  0  0  0  0  0  0
    2.6942    0.3017   -1.6556 C   0  0  0  0  0  0  0  0  0  0  0  0
    2.6839   -1.2034   -1.5293 C   0  0  1  0  0  0  0  0  0  0  0  0
    3.2342   -1.7853   -0.1565 C   0  0  2  0  0  0  0  0  0  0  0  0
    2.0824   -2.4813    0.4144 N   0  0  0  0  0  0  0  0  0  0  0  0
    1.1284   -2.3613   -0.4051 C   0  0  0  0  0  0  0  0  0  0  0  0
    1.3461   -1.7094   -1.5685 O   0  0  0  0  0  0  0  0  0  0  0  0
    0.3808   -4.8661    0.2526 H   0  0  0  0  0  0  0  0  0  0  0  0
   -0.7600   -4.2448    1.4952 H   0  0  0  0  0  0  0  0  0  0  0  0
   -1.6818   -5.4584   -1.0691 H   0  0  0  0  0  0  0  0  0  0  0  0
   -2.6077   -4.2261   -0.1554 H   0  0  0  0  0  0  0  0  0  0  0  0
   -1.7697   -2.5906   -1.8834 H   0  0  0  0  0  0  0  0  0  0  0  0
   -0.3723   -3.6531   -2.2141 H   0  0  0  0  0  0  0  0  0  0  0  0
   -2.6998   -0.4658    2.7029 H   0  0  0  0  0  0  0  0  0  0  0  0
   -0.6693    0.4941    2.0760 H   0  0  0  0  0  0  0  0  0  0  0  0
   -2.1622    0.8291   -1.3432 H   0  0  0  0  0  0  0  0  0  0  0  0
   -2.7002    3.0290   -2.3695 H   0  0  0  0  0  0  0  0  0  0  0  0
   -2.4507    5.1193   -1.0390 H   0  0  0  0  0  0  0  0  0  0  0  0
   -1.6457    5.0009    1.3119 H   0  0  0  0  0  0  0  0  0  0  0  0
   -1.0955    2.7999    2.3270 H   0  0  0  0  0  0  0  0  0  0  0  0
   -4.2647    1.4506    2.1126 H   0  0  0  0  0  0  0  0  0  0  0  0
   -6.3070    2.0620    0.8516 H   0  0  0  0  0  0  0  0  0  0  0  0
   -7.0296    0.6895   -1.0984 H   0  0  0  0  0  0  0  0  0  0  0  0
   -5.7086   -1.3169   -1.7491 H   0  0  0  0  0  0  0  0  0  0  0  0
   -3.6696   -1.9331   -0.4722 H   0  0  0  0  0  0  0  0  0  0  0  0
    1.8394    0.0273    1.2892 H   0  0  0  0  0  0  0  0  0  0  0  0
    2.7340    1.8581    2.7219 H   0  0  0  0  0  0  0  0  0  0  0  0
    5.1919    2.1078    3.0317 H   0  0  0  0  0  0  0  0  0  0  0  0
    6.7461    0.5145    1.9194 H   0  0  0  0  0  0  0  0  0  0  0  0
    5.8440   -1.3005    0.4818 H   0  0  0  0  0  0  0  0  0  0  0  0
    4.8334    0.3774   -1.9561 H   0  0  0  0  0  0  0  0  0  0  0  0
    4.9317    2.8509   -1.9838 H   0  0  0  0  0  0  0  0  0  0  0  0
    2.8522    4.1888   -1.6827 H   0  0  0  0  0  0  0  0  0  0  0  0
    0.6621    3.0215   -1.3955 H   0  0  0  0  0  0  0  0  0  0  0  0
    0.5767    0.5411   -1.3750 H   0  0  0  0  0  0  0  0  0  0  0  0
    3.2355   -1.6478   -2.3708 H   0  0  0  0  0  0  0  0  0  0  0  0
    4.0284   -2.5199   -0.3600 H   0  0  0  0  0  0  0  0  0  0  0  0
  1  2  1  0  0  0  0
  1  4  1  0  0  0  0
  1  6  1  0  0  0  0
  1 37  1  0  0  0  0
  2  3  1  0  0  0  0
  2 39  1  0  0  0  0
  2 40  1  0  0  0  0
  3  4  1  0  0  0  0
  3 41  1  0  0  0  0
  3 42  1  0  0  0  0
  4 43  1  0  0  0  0
  4 44  1  0  0  0  0
  5  6  1  0  0  0  0
  5  9  1  0  0  0  0
  6  7  2  0  0  0  0
  7  8  1  0  0  0  0
  8  9  1  0  0  0  0
  8 16  1  0  0  0  0
  8 45  1  1  0  0  0
  9 10  1  0  0  0  0
  9 46  1  1  0  0  0
 10 11  2  0  0  0  0
 10 15  1  0  0  0  0
 11 12  1  0  0  0  0
 11 47  1  0  0  0  0
 12 13  2  0  0  0  0
 12 48  1  0  0  0  0
 13 14  1  0  0  0  0
 13 49  1  0  0  0  0
 14 15  2  0  0  0  0
 14 50  1  0  0  0  0
 15 51  1  0  0  0  0
 16 17  2  0  0  0  0
 16 21  1  0  0  0  0
 17 18  1  0  0  0  0
 17 52  1  0  0  0  0
 18 19  2  0  0  0  0
 18 53  1  0  0  0  0
 19 20  1  0  0  0  0
 19 54  1  0  0  0  0
 20 21  2  0  0  0  0
 20 55  1  0  0  0  0
 21 56  1  0  0  0  0
 22 23  2  0  0  0  0
 22 27  1  0  0  0  0
 22 57  1  0  0  0  0
 23 24  1  0  0  0  0
 23 58  1  0  0  0  0
 24 25  2  0  0  0  0
 24 59  1  0  0  0  0
 25 26  1  0  0  0  0
 25 60  1  0  0  0  0
 26 27  2  0  0  0  0
 26 61  1  0  0  0  0
 27 35  1  0  0  0  0
 28 29  2  0  0  0  0
 28 33  1  0  0  0  0
 28 62  1  0  0  0  0
 29 30  1  0  0  0  0
 29 63  1  0  0  0  0
 30 31  2  0  0  0  0
 30 64  1  0  0  0  0
 31 32  1  0  0  0  0
 31 65  1  0  0  0  0
 32 33  2  0  0  0  0
 32 66  1  0  0  0  0
 33 34  1  0  0  0  0
 34 35  1  0  0  0  0
 34 38  1  0  0  0  0
 34 67  1  6  0  0  0
 35 36  1  0  0  0  0
 35 68  1  6  0  0  0
 36 37  2  0  0  0  0
 37 38  1  0  0  0  0
M  END
$$$$
