Title Card Required
 OpenBabel03192317573D

 72 78  0  0  1  0  0  0  0  0999 V2000
    1.4677   -0.0543   -1.3838 O   0  0  0  0  0  0  0  0  0  0  0  0
    0.2540    0.2178   -0.8418 C   0  0  0  0  0  0  0  0  0  0  0  0
    0.2057    0.3689    0.4191 N   0  0  0  0  0  0  0  0  0  0  0  0
    1.5696    0.2825    0.9143 C   0  0  1  0  0  0  0  0  0  0  0  0
    2.3136   -0.4392   -0.2755 C   0  0  0  0  0  0  0  0  0  0  0  0
    3.7192    0.0723   -0.4984 C   0  0  0  0  0  0  0  0  0  0  0  0
    3.9538    1.1686   -1.3307 C   0  0  0  0  0  0  0  0  0  0  0  0
    5.2329    1.7136   -1.4307 C   0  0  0  0  0  0  0  0  0  0  0  0
    6.2885    1.1702   -0.7006 C   0  0  0  0  0  0  0  0  0  0  0  0
    6.0604    0.0720    0.1275 C   0  0  0  0  0  0  0  0  0  0  0  0
    4.7828   -0.4749    0.2263 C   0  0  0  0  0  0  0  0  0  0  0  0
    2.2264   -1.9651   -0.1953 C   0  0  0  0  0  0  0  0  0  0  0  0
    3.0085   -2.7245   -1.0772 C   0  0  0  0  0  0  0  0  0  0  0  0
    2.9105   -4.1117   -1.1076 C   0  0  0  0  0  0  0  0  0  0  0  0
    2.0201   -4.7673   -0.2568 C   0  0  0  0  0  0  0  0  0  0  0  0
    1.2228   -4.0222    0.6069 C   0  0  0  0  0  0  0  0  0  0  0  0
    1.3172   -2.6288    0.6360 C   0  0  0  0  0  0  0  0  0  0  0  0
    2.1215    1.6552    1.2548 C   0  0  0  0  0  0  0  0  0  0  0  0
    3.2239    1.7580    2.1099 C   0  0  0  0  0  0  0  0  0  0  0  0
    3.8216    2.9905    2.3552 C   0  0  0  0  0  0  0  0  0  0  0  0
    3.3094    4.1442    1.7601 C   0  0  0  0  0  0  0  0  0  0  0  0
    2.1923    4.0543    0.9334 C   0  0  0  0  0  0  0  0  0  0  0  0
    1.5991    2.8164    0.6819 C   0  0  0  0  0  0  0  0  0  0  0  0
   -0.8790    0.3226   -1.7788 C   0  0  0  0  0  0  0  0  0  0  0  0
   -2.1963    0.5991   -1.3357 C   0  0  0  0  0  0  0  0  0  0  0  0
   -3.1948    0.7028   -2.3133 C   0  0  0  0  0  0  0  0  0  0  0  0
   -2.9144    0.5315   -3.6691 C   0  0  0  0  0  0  0  0  0  0  0  0
   -1.6200    0.2405   -4.0883 C   0  0  0  0  0  0  0  0  0  0  0  0
   -0.6087    0.1346   -3.1401 C   0  0  0  0  0  0  0  0  0  0  0  0
   -2.5836    0.8939    0.4642 P   0  0  0  0  0  0  0  0  0  0  0  0
   -4.4343    0.9824    0.3873 C   0  0  0  0  0  0  0  0  0  0  0  0
   -5.2985   -0.1180    0.4502 C   0  0  0  0  0  0  0  0  0  0  0  0
   -6.6803    0.0612    0.3865 C   0  0  0  0  0  0  0  0  0  0  0  0
   -7.2189    1.3409    0.2561 C   0  0  0  0  0  0  0  0  0  0  0  0
   -6.3694    2.4454    0.2021 C   0  0  0  0  0  0  0  0  0  0  0  0
   -4.9892    2.2656    0.2793 C   0  0  0  0  0  0  0  0  0  0  0  0
   -2.3513   -0.8102    1.1431 C   0  0  0  0  0  0  0  0  0  0  0  0
   -2.0902   -0.9259    2.5131 C   0  0  0  0  0  0  0  0  0  0  0  0
   -1.9067   -2.1782    3.0986 C   0  0  0  0  0  0  0  0  0  0  0  0
   -1.9772   -3.3318    2.3168 C   0  0  0  0  0  0  0  0  0  0  0  0
   -2.2243   -3.2252    0.9483 C   0  0  0  0  0  0  0  0  0  0  0  0
   -2.4088   -1.9718    0.3644 C   0  0  0  0  0  0  0  0  0  0  0  0
    1.6208   -0.3420    1.8171 H   0  0  0  0  0  0  0  0  0  0  0  0
    3.1234    1.6001   -1.8897 H   0  0  0  0  0  0  0  0  0  0  0  0
    5.4038    2.5719   -2.0823 H   0  0  0  0  0  0  0  0  0  0  0  0
    7.2885    1.5993   -0.7799 H   0  0  0  0  0  0  0  0  0  0  0  0
    6.8810   -0.3641    0.6993 H   0  0  0  0  0  0  0  0  0  0  0  0
    4.6079   -1.3356    0.8759 H   0  0  0  0  0  0  0  0  0  0  0  0
    3.7056   -2.2159   -1.7453 H   0  0  0  0  0  0  0  0  0  0  0  0
    3.5321   -4.6843   -1.7977 H   0  0  0  0  0  0  0  0  0  0  0  0
    1.9454   -5.8558   -0.2723 H   0  0  0  0  0  0  0  0  0  0  0  0
    0.5101   -4.5187    1.2669 H   0  0  0  0  0  0  0  0  0  0  0  0
    0.6498   -2.0771    1.3025 H   0  0  0  0  0  0  0  0  0  0  0  0
    3.6311    0.8561    2.5730 H   0  0  0  0  0  0  0  0  0  0  0  0
    4.6889    3.0509    3.0146 H   0  0  0  0  0  0  0  0  0  0  0  0
    3.7758    5.1124    1.9494 H   0  0  0  0  0  0  0  0  0  0  0  0
    1.7745    4.9546    0.4797 H   0  0  0  0  0  0  0  0  0  0  0  0
    0.7146    2.7546    0.0457 H   0  0  0  0  0  0  0  0  0  0  0  0
   -4.2216    0.9160   -2.0159 H   0  0  0  0  0  0  0  0  0  0  0  0
   -3.7220    0.6193   -4.3978 H   0  0  0  0  0  0  0  0  0  0  0  0
   -1.3977    0.0944   -5.1460 H   0  0  0  0  0  0  0  0  0  0  0  0
    0.4130   -0.0977   -3.4387 H   0  0  0  0  0  0  0  0  0  0  0  0
   -4.8914   -1.1257    0.5498 H   0  0  0  0  0  0  0  0  0  0  0  0
   -7.3405   -0.8064    0.4375 H   0  0  0  0  0  0  0  0  0  0  0  0
   -8.3002    1.4782    0.2049 H   0  0  0  0  0  0  0  0  0  0  0  0
   -6.7828    3.4513    0.1105 H   0  0  0  0  0  0  0  0  0  0  0  0
   -4.3263    3.1348    0.2545 H   0  0  0  0  0  0  0  0  0  0  0  0
   -2.0194   -0.0220    3.1229 H   0  0  0  0  0  0  0  0  0  0  0  0
   -1.7067   -2.2531    4.1688 H   0  0  0  0  0  0  0  0  0  0  0  0
   -1.8362   -4.3130    2.7747 H   0  0  0  0  0  0  0  0  0  0  0  0
   -2.2676   -4.1222    0.3278 H   0  0  0  0  0  0  0  0  0  0  0  0
   -2.5963   -1.8996   -0.7096 H   0  0  0  0  0  0  0  0  0  0  0  0
  1  2  1  0  0  0  0
  1  5  1  0  0  0  0
  2  3  2  0  0  0  0
  2 24  1  0  0  0  0
  3  4  1  0  0  0  0
  4  5  1  0  0  0  0
  4 18  1  0  0  0  0
  4 43  1  1  0  0  0
  5  6  1  0  0  0  0
  5 12  1  0  0  0  0
  6  7  2  0  0  0  0
  6 11  1  0  0  0  0
  7  8  1  0  0  0  0
  7 44  1  0  0  0  0
  8  9  2  0  0  0  0
  8 45  1  0  0  0  0
  9 10  1  0  0  0  0
  9 46  1  0  0  0  0
 10 11  2  0  0  0  0
 10 47  1  0  0  0  0
 11 48  1  0  0  0  0
 12 13  2  0  0  0  0
 12 17  1  0  0  0  0
 13 14  1  0  0  0  0
 13 49  1  0  0  0  0
 14 15  2  0  0  0  0
 14 50  1  0  0  0  0
 15 16  1  0  0  0  0
 15 51  1  0  0  0  0
 16 17  2  0  0  0  0
 16 52  1  0  0  0  0
 17 53  1  0  0  0  0
 18 19  2  0  0  0  0
 18 23  1  0  0  0  0
 19 20  1  0  0  0  0
 19 54  1  0  0  0  0
 20 21  2  0  0  0  0
 20 55  1  0  0  0  0
 21 22  1  0  0  0  0
 21 56  1  0  0  0  0
 22 23  2  0  0  0  0
 22 57  1  0  0  0  0
 23 58  1  0  0  0  0
 24 25  2  0  0  0  0
 24 29  1  0  0  0  0
 25 26  1  0  0  0  0
 25 30  1  0  0  0  0
 26 27  2  0  0  0  0
 26 59  1  0  0  0  0
 27 28  1  0  0  0  0
 27 60  1  0  0  0  0
 28 29  2  0  0  0  0
 28 61  1  0  0  0  0
 29 62  1  0  0  0  0
 30 31  1  0  0  0  0
 30 37  1  0  0  0  0
 31 32  2  0  0  0  0
 31 36  1  0  0  0  0
 32 33  1  0  0  0  0
 32 63  1  0  0  0  0
 33 34  2  0  0  0  0
 33 64  1  0  0  0  0
 34 35  1  0  0  0  0
 34 65  1  0  0  0  0
 35 36  2  0  0  0  0
 35 66  1  0  0  0  0
 36 67  1  0  0  0  0
 37 38  2  0  0  0  0
 37 42  1  0  0  0  0
 38 39  1  0  0  0  0
 38 68  1  0  0  0  0
 39 40  2  0  0  0  0
 39 69  1  0  0  0  0
 40 41  1  0  0  0  0
 40 70  1  0  0  0  0
 41 42  2  0  0  0  0
 41 71  1  0  0  0  0
 42 72  1  0  0  0  0
M  END
$$$$
