Title Card Required
 OpenBabel03192317563D

 35 37  0  0  1  0  0  0  0  0999 V2000
   -1.1587   -0.8760    0.0844 C   0  0  0  0  0  0  0  0  0  0  0  0
   -1.5753    0.4672   -0.0743 C   0  0  0  0  0  0  0  0  0  0  0  0
   -2.9344    0.7558    0.0956 C   0  0  0  0  0  0  0  0  0  0  0  0
   -3.8281   -0.2594    0.3917 C   0  0  0  0  0  0  0  0  0  0  0  0
   -3.3269   -1.5583    0.4981 C   0  0  0  0  0  0  0  0  0  0  0  0
   -2.0439   -1.8413    0.3468 N   0  0  0  0  0  0  0  0  0  0  0  0
    0.2553   -1.3670   -0.0203 C   0  0  0  0  0  0  0  0  0  0  0  0
    1.3076   -0.6977    0.6296 C   0  0  0  0  0  0  0  0  0  0  0  0
    2.5996   -1.2119    0.5321 C   0  0  0  0  0  0  0  0  0  0  0  0
    2.7966   -2.3762   -0.2022 C   0  0  0  0  0  0  0  0  0  0  0  0
    1.6887   -2.9751   -0.8042 C   0  0  0  0  0  0  0  0  0  0  0  0
    0.4577   -2.4863   -0.7119 N   0  0  0  0  0  0  0  0  0  0  0  0
    1.0123    0.4157    1.3414 O   0  0  0  0  0  0  0  0  0  0  0  0
    1.6716    1.6273    0.9795 C   0  0  1  0  0  0  0  0  0  0  0  0
    1.6084    1.8924   -0.5354 C   0  0  0  0  0  0  0  0  0  0  0  0
    0.3108    1.4635   -1.2414 C   0  0  1  0  0  0  0  0  0  0  0  0
   -0.7961    1.5420   -0.3476 O   0  0  0  0  0  0  0  0  0  0  0  0
    1.0304    2.7209    1.8131 C   0  0  0  0  0  0  0  0  0  0  0  0
    0.0066    2.3455   -2.4408 C   0  0  0  0  0  0  0  0  0  0  0  0
   -3.2495    1.7933   -0.0227 H   0  0  0  0  0  0  0  0  0  0  0  0
   -4.8904   -0.0551    0.5283 H   0  0  0  0  0  0  0  0  0  0  0  0
   -3.9914   -2.3978    0.7234 H   0  0  0  0  0  0  0  0  0  0  0  0
    3.4247   -0.7101    1.0411 H   0  0  0  0  0  0  0  0  0  0  0  0
    3.7886   -2.8175   -0.3032 H   0  0  0  0  0  0  0  0  0  0  0  0
    1.8071   -3.8906   -1.3914 H   0  0  0  0  0  0  0  0  0  0  0  0
    2.7372    1.5510    1.2646 H   0  0  0  0  0  0  0  0  0  0  0  0
    1.7711    2.9719   -0.6836 H   0  0  0  0  0  0  0  0  0  0  0  0
    2.4411    1.3812   -1.0428 H   0  0  0  0  0  0  0  0  0  0  0  0
    0.4112    0.4262   -1.5902 H   0  0  0  0  0  0  0  0  0  0  0  0
    1.0674    2.4454    2.8755 H   0  0  0  0  0  0  0  0  0  0  0  0
    1.5697    3.6681    1.6751 H   0  0  0  0  0  0  0  0  0  0  0  0
   -0.0169    2.8532    1.5145 H   0  0  0  0  0  0  0  0  0  0  0  0
    0.8556    2.3507   -3.1393 H   0  0  0  0  0  0  0  0  0  0  0  0
   -0.8829    1.9800   -2.9716 H   0  0  0  0  0  0  0  0  0  0  0  0
   -0.1814    3.3759   -2.1065 H   0  0  0  0  0  0  0  0  0  0  0  0
  1  2  2  0  0  0  0
  1  6  1  0  0  0  0
  1  7  1  0  0  0  0
  2  3  1  0  0  0  0
  2 17  1  0  0  0  0
  3  4  2  0  0  0  0
  3 20  1  0  0  0  0
  4  5  1  0  0  0  0
  4 21  1  0  0  0  0
  5  6  2  0  0  0  0
  5 22  1  0  0  0  0
  7  8  2  0  0  0  0
  7 12  1  0  0  0  0
  8  9  1  0  0  0  0
  8 13  1  0  0  0  0
  9 10  2  0  0  0  0
  9 23  1  0  0  0  0
 10 11  1  0  0  0  0
 10 24  1  0  0  0  0
 11 12  2  0  0  0  0
 11 25  1  0  0  0  0
 13 14  1  0  0  0  0
 14 15  1  0  0  0  0
 14 18  1  0  0  0  0
 14 26  1  1  0  0  0
 15 16  1  0  0  0  0
 15 27  1  0  0  0  0
 15 28  1  0  0  0  0
 16 17  1  0  0  0  0
 16 19  1  0  0  0  0
 16 29  1  6  0  0  0
 18 30  1  0  0  0  0
 18 31  1  0  0  0  0
 18 32  1  0  0  0  0
 19 33  1  0  0  0  0
 19 34  1  0  0  0  0
 19 35  1  0  0  0  0
M  END
$$$$
