Title Card Required
 OpenBabel03192317483D

 90 97  0  0  0  0  0  0  0  0999 V2000
    0.5362    1.1947   -4.8284 O   0  0  0  0  0  0  0  0  0  0  0  0
   -0.0255    0.8916   -3.6271 C   0  0  0  0  0  0  0  0  0  0  0  0
    0.4785    1.4234   -2.4300 C   0  0  0  0  0  0  0  0  0  0  0  0
    1.5125    2.3052   -2.4242 O   0  0  0  0  0  0  0  0  0  0  0  0
    1.8582    2.8252   -3.6886 C   0  0  0  0  0  0  0  0  0  0  0  0
    1.8438    1.7171   -4.7207 C   0  0  0  0  0  0  0  0  0  0  0  0
   -0.0674    1.0315   -1.1982 C   0  0  0  0  0  0  0  0  0  0  0  0
   -1.1685    0.1573   -1.1685 C   0  0  0  0  0  0  0  0  0  0  0  0
   -1.6851   -0.3311   -2.3780 C   0  0  0  0  0  0  0  0  0  0  0  0
   -1.1158    0.0245   -3.5931 C   0  0  0  0  0  0  0  0  0  0  0  0
   -0.3709    3.7667    2.8351 O   0  0  0  0  0  0  0  0  0  0  0  0
    0.3688    2.9568    2.0288 C   0  0  0  0  0  0  0  0  0  0  0  0
   -0.1616    2.4714    0.8231 C   0  0  0  0  0  0  0  0  0  0  0  0
   -1.3971    2.8265    0.3902 O   0  0  0  0  0  0  0  0  0  0  0  0
   -2.0926    3.7799    1.1679 C   0  0  0  0  0  0  0  0  0  0  0  0
   -1.7609    3.6070    2.6350 C   0  0  0  0  0  0  0  0  0  0  0  0
    0.5658    1.5654    0.0442 C   0  0  0  0  0  0  0  0  0  0  0  0
    1.8493    1.1643    0.4538 C   0  0  0  0  0  0  0  0  0  0  0  0
    2.3899    1.7002    1.6287 C   0  0  0  0  0  0  0  0  0  0  0  0
    1.6531    2.5843    2.4124 C   0  0  0  0  0  0  0  0  0  0  0  0
    2.7025   -0.1302   -0.5611 P   0  0  0  0  0  0  0  0  0  0  0  0
    4.3826   -0.1017    0.1990 C   0  0  0  0  0  0  0  0  0  0  0  0
    4.8437   -1.0092    1.1559 C   0  0  0  0  0  0  0  0  0  0  0  0
    7.0108    0.0988    1.2327 C   0  0  0  0  0  0  0  0  0  0  0  0
    5.2573    0.9024   -0.2435 C   0  0  0  0  0  0  0  0  0  0  0  0
    6.1425   -0.9083    1.6594 C   0  0  0  0  0  0  0  0  0  0  0  0
    6.5434    1.0071    0.2723 C   0  0  0  0  0  0  0  0  0  0  0  0
    8.4126    0.2096    1.7726 C   0  0  0  0  0  0  0  0  0  0  0  0
    1.9917   -1.6620    0.1854 C   0  0  0  0  0  0  0  0  0  0  0  0
    2.2034   -2.8690   -0.4936 C   0  0  0  0  0  0  0  0  0  0  0  0
    1.0041   -4.1079    1.2201 C   0  0  0  0  0  0  0  0  0  0  0  0
    1.2673   -1.6927    1.3847 C   0  0  0  0  0  0  0  0  0  0  0  0
    1.7290   -4.0741    0.0236 C   0  0  0  0  0  0  0  0  0  0  0  0
    0.7801   -2.8979    1.8867 C   0  0  0  0  0  0  0  0  0  0  0  0
    0.4262   -5.3922    1.7503 C   0  0  0  0  0  0  0  0  0  0  0  0
   -1.8730   -0.3293    0.4720 P   0  0  0  0  0  0  0  0  0  0  0  0
   -3.4343    0.6584    0.5629 C   0  0  0  0  0  0  0  0  0  0  0  0
   -4.0314    1.3154   -0.5179 C   0  0  0  0  0  0  0  0  0  0  0  0
   -5.7899    2.1970    0.9206 C   0  0  0  0  0  0  0  0  0  0  0  0
   -4.0232    0.7963    1.8272 C   0  0  0  0  0  0  0  0  0  0  0  0
   -5.1885    2.0723   -0.3374 C   0  0  0  0  0  0  0  0  0  0  0  0
   -5.1851    1.5466    2.0025 C   0  0  0  0  0  0  0  0  0  0  0  0
   -7.0592    2.9857    1.1084 C   0  0  0  0  0  0  0  0  0  0  0  0
   -2.5286   -2.0041    0.0563 C   0  0  0  0  0  0  0  0  0  0  0  0
   -1.6268   -2.9524   -0.4472 C   0  0  0  0  0  0  0  0  0  0  0  0
   -3.3500   -4.6691   -0.4513 C   0  0  0  0  0  0  0  0  0  0  0  0
   -3.8463   -2.4067    0.3002 C   0  0  0  0  0  0  0  0  0  0  0  0
   -2.0356   -4.2583   -0.7025 C   0  0  0  0  0  0  0  0  0  0  0  0
   -4.2455   -3.7194    0.0507 C   0  0  0  0  0  0  0  0  0  0  0  0
   -3.7877   -6.0898   -0.6955 C   0  0  0  0  0  0  0  0  0  0  0  0
    2.8562    3.2708   -3.5899 H   0  0  0  0  0  0  0  0  0  0  0  0
    1.1410    3.6119   -3.9821 H   0  0  0  0  0  0  0  0  0  0  0  0
    2.1276    2.0877   -5.7133 H   0  0  0  0  0  0  0  0  0  0  0  0
    2.5425    0.9194   -4.4130 H   0  0  0  0  0  0  0  0  0  0  0  0
   -2.5329   -1.0183   -2.3655 H   0  0  0  0  0  0  0  0  0  0  0  0
   -1.4885   -0.3668   -4.5404 H   0  0  0  0  0  0  0  0  0  0  0  0
   -3.1643    3.6161    0.9809 H   0  0  0  0  0  0  0  0  0  0  0  0
   -1.8129    4.7963    0.8417 H   0  0  0  0  0  0  0  0  0  0  0  0
   -2.2684    4.3644    3.2447 H   0  0  0  0  0  0  0  0  0  0  0  0
   -2.0754    2.6019    2.9690 H   0  0  0  0  0  0  0  0  0  0  0  0
    3.3866    1.4010    1.9562 H   0  0  0  0  0  0  0  0  0  0  0  0
    2.0452    2.9830    3.3488 H   0  0  0  0  0  0  0  0  0  0  0  0
    4.1855   -1.8017    1.5183 H   0  0  0  0  0  0  0  0  0  0  0  0
    4.9143    1.6154   -0.9989 H   0  0  0  0  0  0  0  0  0  0  0  0
    6.4855   -1.6284    2.4062 H   0  0  0  0  0  0  0  0  0  0  0  0
    7.2046    1.8029   -0.0801 H   0  0  0  0  0  0  0  0  0  0  0  0
    9.1554    0.0481    0.9770 H   0  0  0  0  0  0  0  0  0  0  0  0
    8.5957    1.2095    2.1927 H   0  0  0  0  0  0  0  0  0  0  0  0
    8.5950   -0.5315    2.5617 H   0  0  0  0  0  0  0  0  0  0  0  0
    2.7534   -2.8655   -1.4386 H   0  0  0  0  0  0  0  0  0  0  0  0
    1.0685   -0.7661    1.9268 H   0  0  0  0  0  0  0  0  0  0  0  0
    1.9142   -5.0045   -0.5189 H   0  0  0  0  0  0  0  0  0  0  0  0
    0.1998   -2.8953    2.8127 H   0  0  0  0  0  0  0  0  0  0  0  0
    0.5587   -5.4694    2.8386 H   0  0  0  0  0  0  0  0  0  0  0  0
   -0.6558   -5.4333    1.5441 H   0  0  0  0  0  0  0  0  0  0  0  0
    0.8948   -6.2673    1.2804 H   0  0  0  0  0  0  0  0  0  0  0  0
   -3.5784    1.2533   -1.5089 H   0  0  0  0  0  0  0  0  0  0  0  0
   -3.5602    0.3085    2.6901 H   0  0  0  0  0  0  0  0  0  0  0  0
   -5.6358    2.5802   -1.1954 H   0  0  0  0  0  0  0  0  0  0  0  0
   -5.6269    1.6347    2.9985 H   0  0  0  0  0  0  0  0  0  0  0  0
   -7.9232    2.3108    1.2100 H   0  0  0  0  0  0  0  0  0  0  0  0
   -7.0170    3.6013    2.0179 H   0  0  0  0  0  0  0  0  0  0  0  0
   -7.2516    3.6456    0.2523 H   0  0  0  0  0  0  0  0  0  0  0  0
   -0.5927   -2.6645   -0.6593 H   0  0  0  0  0  0  0  0  0  0  0  0
   -4.5760   -1.6890    0.6813 H   0  0  0  0  0  0  0  0  0  0  0  0
   -1.3123   -4.9731   -1.1050 H   0  0  0  0  0  0  0  0  0  0  0  0
   -5.2817   -4.0089    0.2438 H   0  0  0  0  0  0  0  0  0  0  0  0
   -3.8837   -6.6400    0.2535 H   0  0  0  0  0  0  0  0  0  0  0  0
   -4.7668   -6.1246   -1.1941 H   0  0  0  0  0  0  0  0  0  0  0  0
   -3.0641   -6.6280   -1.3218 H   0  0  0  0  0  0  0  0  0  0  0  0
  1  2  1  0  0  0  0
  1  6  1  0  0  0  0
  2  3  2  0  0  0  0
  2 10  1  0  0  0  0
  3  4  1  0  0  0  0
  3  7  1  0  0  0  0
  4  5  1  0  0  0  0
  5  6  1  0  0  0  0
  5 51  1  0  0  0  0
  5 52  1  0  0  0  0
  6 53  1  0  0  0  0
  6 54  1  0  0  0  0
  7  8  2  0  0  0  0
  7 17  1  0  0  0  0
  8  9  1  0  0  0  0
  8 36  1  0  0  0  0
  9 10  2  0  0  0  0
  9 55  1  0  0  0  0
 10 56  1  0  0  0  0
 11 12  1  0  0  0  0
 11 16  1  0  0  0  0
 12 13  2  0  0  0  0
 12 20  1  0  0  0  0
 13 14  1  0  0  0  0
 13 17  1  0  0  0  0
 14 15  1  0  0  0  0
 15 16  1  0  0  0  0
 15 57  1  0  0  0  0
 15 58  1  0  0  0  0
 16 59  1  0  0  0  0
 16 60  1  0  0  0  0
 17 18  2  0  0  0  0
 18 19  1  0  0  0  0
 18 21  1  0  0  0  0
 19 20  2  0  0  0  0
 19 61  1  0  0  0  0
 20 62  1  0  0  0  0
 21 22  1  0  0  0  0
 21 29  1  0  0  0  0
 22 23  2  0  0  0  0
 22 25  1  0  0  0  0
 23 26  1  0  0  0  0
 23 63  1  0  0  0  0
 24 26  2  0  0  0  0
 24 27  1  0  0  0  0
 24 28  1  0  0  0  0
 25 27  2  0  0  0  0
 25 64  1  0  0  0  0
 26 65  1  0  0  0  0
 27 66  1  0  0  0  0
 28 67  1  0  0  0  0
 28 68  1  0  0  0  0
 28 69  1  0  0  0  0
 29 30  2  0  0  0  0
 29 32  1  0  0  0  0
 30 33  1  0  0  0  0
 30 70  1  0  0  0  0
 31 33  2  0  0  0  0
 31 34  1  0  0  0  0
 31 35  1  0  0  0  0
 32 34  2  0  0  0  0
 32 71  1  0  0  0  0
 33 72  1  0  0  0  0
 34 73  1  0  0  0  0
 35 74  1  0  0  0  0
 35 75  1  0  0  0  0
 35 76  1  0  0  0  0
 36 37  1  0  0  0  0
 36 44  1  0  0  0  0
 37 38  2  0  0  0  0
 37 40  1  0  0  0  0
 38 41  1  0  0  0  0
 38 77  1  0  0  0  0
 39 41  2  0  0  0  0
 39 42  1  0  0  0  0
 39 43  1  0  0  0  0
 40 42  2  0  0  0  0
 40 78  1  0  0  0  0
 41 79  1  0  0  0  0
 42 80  1  0  0  0  0
 43 81  1  0  0  0  0
 43 82  1  0  0  0  0
 43 83  1  0  0  0  0
 44 45  2  0  0  0  0
 44 47  1  0  0  0  0
 45 48  1  0  0  0  0
 45 84  1  0  0  0  0
 46 48  2  0  0  0  0
 46 49  1  0  0  0  0
 46 50  1  0  0  0  0
 47 49  2  0  0  0  0
 47 85  1  0  0  0  0
 48 86  1  0  0  0  0
 49 87  1  0  0  0  0
 50 88  1  0  0  0  0
 50 89  1  0  0  0  0
 50 90  1  0  0  0  0
M  END
$$$$
