Title Card Required
 OpenBabel03192317533D

178183  0  0  0  0  0  0  0  0999 V2000
    0.5772   -2.2344    0.0547 C   0  0  0  0  0  0  0  0  0  0  0  0
    1.8368   -1.7329   -0.2801 C   0  0  0  0  0  0  0  0  0  0  0  0
    2.4445   -2.0653   -1.5004 C   0  0  0  0  0  0  0  0  0  0  0  0
    1.7831   -2.9028   -2.3944 C   0  0  0  0  0  0  0  0  0  0  0  0
    0.5141   -3.4092   -2.0834 C   0  0  0  0  0  0  0  0  0  0  0  0
   -0.0804   -3.0790   -0.8710 C   0  0  0  0  0  0  0  0  0  0  0  0
   -0.0958   -1.8801    1.3387 C   0  0  0  0  0  0  0  0  0  0  0  0
   -1.2177   -1.0514    1.3955 C   0  0  0  0  0  0  0  0  0  0  0  0
   -1.8073   -0.7073    2.6253 C   0  0  0  0  0  0  0  0  0  0  0  0
   -1.2623   -1.1971    3.8075 C   0  0  0  0  0  0  0  0  0  0  0  0
   -0.1390   -2.0385    3.7735 C   0  0  0  0  0  0  0  0  0  0  0  0
    0.4326   -2.3820    2.5556 C   0  0  0  0  0  0  0  0  0  0  0  0
    1.5139   -3.1812    2.4465 O   0  0  0  0  0  0  0  0  0  0  0  0
    2.1658   -3.5817    3.6221 C   0  0  0  0  0  0  0  0  0  0  0  0
   -1.3049   -3.5198   -0.5088 O   0  0  0  0  0  0  0  0  0  0  0  0
   -2.0868   -4.1920   -1.4644 C   0  0  0  0  0  0  0  0  0  0  0  0
   -1.7455   -0.9168    5.0384 O   0  0  0  0  0  0  0  0  0  0  0  0
   -2.8508   -0.0560    5.1349 C   0  0  0  0  0  0  0  0  0  0  0  0
    2.2910   -3.2814   -3.5885 O   0  0  0  0  0  0  0  0  0  0  0  0
    3.5437   -2.7706   -3.9633 C   0  0  0  0  0  0  0  0  0  0  0  0
    2.6604   -0.5693    0.9136 P   0  0  0  0  0  0  0  0  0  0  0  0
    4.4154   -0.8110    0.3831 C   0  0  0  0  0  0  0  0  0  0  0  0
    5.0670   -0.0777   -0.6124 C   0  0  0  0  0  0  0  0  0  0  0  0
    6.3719   -0.3983   -1.0250 C   0  0  0  0  0  0  0  0  0  0  0  0
    7.0147   -1.4725   -0.3958 C   0  0  0  0  0  0  0  0  0  0  0  0
    6.3998   -2.2257    0.6190 C   0  0  0  0  0  0  0  0  0  0  0  0
    5.0990   -1.8719    0.9940 C   0  0  0  0  0  0  0  0  0  0  0  0
    7.3143   -3.6676    1.4271 Si  0  0  0  0  0  0  0  0  0  0  0  0
    8.8312   -3.0098    2.3271 C   0  0  0  0  0  0  0  0  0  0  0  0
    6.1588   -4.5289    2.6376 C   0  0  0  0  0  0  0  0  0  0  0  0
    7.8526   -4.8742    0.0855 C   0  0  0  0  0  0  0  0  0  0  0  0
    7.1598    0.5662   -2.4457 Si  0  0  0  0  0  0  0  0  0  0  0  0
    8.9665    0.0722   -2.6226 C   0  0  0  0  0  0  0  0  0  0  0  0
    6.2256    0.1559   -4.0316 C   0  0  0  0  0  0  0  0  0  0  0  0
    6.9987    2.4084   -2.1059 C   0  0  0  0  0  0  0  0  0  0  0  0
    2.2742    1.0610    0.1367 C   0  0  0  0  0  0  0  0  0  0  0  0
    1.3540    1.2350   -0.9062 C   0  0  0  0  0  0  0  0  0  0  0  0
    1.0854    2.5071   -1.4355 C   0  0  0  0  0  0  0  0  0  0  0  0
    1.7830    3.6034   -0.9056 C   0  0  0  0  0  0  0  0  0  0  0  0
    2.7123    3.4731    0.1385 C   0  0  0  0  0  0  0  0  0  0  0  0
    2.9261    2.1878    0.6570 C   0  0  0  0  0  0  0  0  0  0  0  0
    3.6866    4.9480    0.8157 Si  0  0  0  0  0  0  0  0  0  0  0  0
    3.2874    5.2099    2.6368 C   0  0  0  0  0  0  0  0  0  0  0  0
    5.5281    4.5898    0.6499 C   0  0  0  0  0  0  0  0  0  0  0  0
    3.2607    6.4931   -0.1720 C   0  0  0  0  0  0  0  0  0  0  0  0
   -0.1265    2.7702   -2.8673 Si  0  0  0  0  0  0  0  0  0  0  0  0
   -1.6290    3.7295   -2.2644 C   0  0  0  0  0  0  0  0  0  0  0  0
    0.7567    3.7962   -4.1829 C   0  0  0  0  0  0  0  0  0  0  0  0
   -0.6118    1.1078   -3.5971 C   0  0  0  0  0  0  0  0  0  0  0  0
   -1.9002   -0.4014   -0.1964 P   0  0  0  0  0  0  0  0  0  0  0  0
   -3.4565   -1.3711   -0.3920 C   0  0  0  0  0  0  0  0  0  0  0  0
   -3.9562   -2.2565    0.5645 C   0  0  0  0  0  0  0  0  0  0  0  0
   -5.1373   -2.9835    0.3463 C   0  0  0  0  0  0  0  0  0  0  0  0
   -5.8234   -2.7817   -0.8586 C   0  0  0  0  0  0  0  0  0  0  0  0
   -5.3479   -1.9085   -1.8526 C   0  0  0  0  0  0  0  0  0  0  0  0
   -4.1475   -1.2300   -1.6040 C   0  0  0  0  0  0  0  0  0  0  0  0
   -6.3178   -1.6552   -3.4546 Si  0  0  0  0  0  0  0  0  0  0  0  0
   -7.9634   -0.8403   -3.0379 C   0  0  0  0  0  0  0  0  0  0  0  0
   -5.3270   -0.5557   -4.6159 C   0  0  0  0  0  0  0  0  0  0  0  0
   -6.6313   -3.3288   -4.2596 C   0  0  0  0  0  0  0  0  0  0  0  0
   -5.6687   -4.2311    1.6607 Si  0  0  0  0  0  0  0  0  0  0  0  0
   -7.4062   -4.8510    1.2920 C   0  0  0  0  0  0  0  0  0  0  0  0
   -4.4411   -5.6591    1.6283 C   0  0  0  0  0  0  0  0  0  0  0  0
   -5.6082   -3.3931    3.3456 C   0  0  0  0  0  0  0  0  0  0  0  0
   -2.5730    1.2232    0.3699 C   0  0  0  0  0  0  0  0  0  0  0  0
   -1.7089    2.1005    1.0465 C   0  0  0  0  0  0  0  0  0  0  0  0
   -2.1319    3.3670    1.4630 C   0  0  0  0  0  0  0  0  0  0  0  0
   -3.4377    3.7716    1.1321 C   0  0  0  0  0  0  0  0  0  0  0  0
   -4.3182    2.9368    0.4368 C   0  0  0  0  0  0  0  0  0  0  0  0
   -3.8695    1.6532    0.0821 C   0  0  0  0  0  0  0  0  0  0  0  0
   -6.0680    3.4454   -0.0545 Si  0  0  0  0  0  0  0  0  0  0  0  0
   -6.1917    3.3586   -1.9327 C   0  0  0  0  0  0  0  0  0  0  0  0
   -7.2923    2.2298    0.7013 C   0  0  0  0  0  0  0  0  0  0  0  0
   -6.4174    5.1926    0.5483 C   0  0  0  0  0  0  0  0  0  0  0  0
   -1.0012    4.4668    2.5015 Si  0  0  0  0  0  0  0  0  0  0  0  0
   -0.2575    5.8096    1.4088 C   0  0  0  0  0  0  0  0  0  0  0  0
   -2.0387    5.2747    3.8528 C   0  0  0  0  0  0  0  0  0  0  0  0
    0.3244    3.3765    3.2697 C   0  0  0  0  0  0  0  0  0  0  0  0
    3.4244   -1.6604   -1.7420 H   0  0  0  0  0  0  0  0  0  0  0  0
    0.0346   -4.0582   -2.8129 H   0  0  0  0  0  0  0  0  0  0  0  0
   -2.6776   -0.0527    2.6324 H   0  0  0  0  0  0  0  0  0  0  0  0
    0.2520   -2.3930    4.7249 H   0  0  0  0  0  0  0  0  0  0  0  0
    2.5082   -2.7088    4.2027 H   0  0  0  0  0  0  0  0  0  0  0  0
    1.5113   -4.2022    4.2565 H   0  0  0  0  0  0  0  0  0  0  0  0
    3.0335   -4.1769    3.3155 H   0  0  0  0  0  0  0  0  0  0  0  0
   -2.2017   -3.5841   -2.3774 H   0  0  0  0  0  0  0  0  0  0  0  0
   -1.6453   -5.1672   -1.7282 H   0  0  0  0  0  0  0  0  0  0  0  0
   -3.0741   -4.3428   -1.0109 H   0  0  0  0  0  0  0  0  0  0  0  0
   -2.6356    0.9297    4.6885 H   0  0  0  0  0  0  0  0  0  0  0  0
   -3.7389   -0.4818    4.6389 H   0  0  0  0  0  0  0  0  0  0  0  0
   -3.0597    0.0681    6.2031 H   0  0  0  0  0  0  0  0  0  0  0  0
    3.5232   -1.6709   -4.0394 H   0  0  0  0  0  0  0  0  0  0  0  0
    4.3315   -3.0595   -3.2471 H   0  0  0  0  0  0  0  0  0  0  0  0
    3.7750   -3.1952   -4.9467 H   0  0  0  0  0  0  0  0  0  0  0  0
    4.5335    0.7490   -1.0945 H   0  0  0  0  0  0  0  0  0  0  0  0
    8.0329   -1.7350   -0.7067 H   0  0  0  0  0  0  0  0  0  0  0  0
    4.5797   -2.4389    1.7742 H   0  0  0  0  0  0  0  0  0  0  0  0
    8.5399   -2.2945    3.1104 H   0  0  0  0  0  0  0  0  0  0  0  0
    9.3981   -3.8264    2.7995 H   0  0  0  0  0  0  0  0  0  0  0  0
    9.5042   -2.4895    1.6290 H   0  0  0  0  0  0  0  0  0  0  0  0
    5.2639   -4.9065    2.1194 H   0  0  0  0  0  0  0  0  0  0  0  0
    6.6634   -5.3847    3.1105 H   0  0  0  0  0  0  0  0  0  0  0  0
    5.8345   -3.8448    3.4366 H   0  0  0  0  0  0  0  0  0  0  0  0
    6.9799   -5.2616   -0.4608 H   0  0  0  0  0  0  0  0  0  0  0  0
    8.5180   -4.3858   -0.6422 H   0  0  0  0  0  0  0  0  0  0  0  0
    8.3951   -5.7287    0.5176 H   0  0  0  0  0  0  0  0  0  0  0  0
    9.0666   -0.9939   -2.8765 H   0  0  0  0  0  0  0  0  0  0  0  0
    9.4444    0.6529   -3.4259 H   0  0  0  0  0  0  0  0  0  0  0  0
    9.5248    0.2579   -1.6927 H   0  0  0  0  0  0  0  0  0  0  0  0
    5.1652    0.4365   -3.9361 H   0  0  0  0  0  0  0  0  0  0  0  0
    6.6433    0.7006   -4.8920 H   0  0  0  0  0  0  0  0  0  0  0  0
    6.2782   -0.9216   -4.2495 H   0  0  0  0  0  0  0  0  0  0  0  0
    5.9396    2.6833   -1.9828 H   0  0  0  0  0  0  0  0  0  0  0  0
    7.5297    2.6920   -1.1854 H   0  0  0  0  0  0  0  0  0  0  0  0
    7.4076    3.0006   -2.9387 H   0  0  0  0  0  0  0  0  0  0  0  0
    0.8411    0.3603   -1.3171 H   0  0  0  0  0  0  0  0  0  0  0  0
    1.6030    4.5992   -1.3281 H   0  0  0  0  0  0  0  0  0  0  0  0
    3.6404    2.0460    1.4781 H   0  0  0  0  0  0  0  0  0  0  0  0
    3.4785    4.2964    3.2204 H   0  0  0  0  0  0  0  0  0  0  0  0
    3.9118    6.0162    3.0516 H   0  0  0  0  0  0  0  0  0  0  0  0
    2.2321    5.4841    2.7734 H   0  0  0  0  0  0  0  0  0  0  0  0
    5.8281    4.5509   -0.4074 H   0  0  0  0  0  0  0  0  0  0  0  0
    6.1192    5.3760    1.1444 H   0  0  0  0  0  0  0  0  0  0  0  0
    5.7921    3.6256    1.1109 H   0  0  0  0  0  0  0  0  0  0  0  0
    3.4805    6.3510   -1.2411 H   0  0  0  0  0  0  0  0  0  0  0  0
    2.1994    6.7643   -0.0704 H   0  0  0  0  0  0  0  0  0  0  0  0
    3.8610    7.3442    0.1839 H   0  0  0  0  0  0  0  0  0  0  0  0
   -1.3153    4.6360   -1.7229 H   0  0  0  0  0  0  0  0  0  0  0  0
   -2.2591    4.0377   -3.1136 H   0  0  0  0  0  0  0  0  0  0  0  0
   -2.2419    3.1272   -1.5776 H   0  0  0  0  0  0  0  0  0  0  0  0
    1.6573    3.2775   -4.5445 H   0  0  0  0  0  0  0  0  0  0  0  0
    0.0939    3.9730   -5.0440 H   0  0  0  0  0  0  0  0  0  0  0  0
    1.0647    4.7779   -3.7922 H   0  0  0  0  0  0  0  0  0  0  0  0
    0.2698    0.5901   -4.0059 H   0  0  0  0  0  0  0  0  0  0  0  0
   -1.0631    0.4519   -2.8367 H   0  0  0  0  0  0  0  0  0  0  0  0
   -1.3365    1.2446   -4.4145 H   0  0  0  0  0  0  0  0  0  0  0  0
   -3.3948   -2.4002    1.4920 H   0  0  0  0  0  0  0  0  0  0  0  0
   -6.7566   -3.3297   -1.0355 H   0  0  0  0  0  0  0  0  0  0  0  0
   -3.7315   -0.5622   -2.3673 H   0  0  0  0  0  0  0  0  0  0  0  0
   -7.8031    0.1312   -2.5463 H   0  0  0  0  0  0  0  0  0  0  0  0
   -8.5624   -0.6707   -3.9455 H   0  0  0  0  0  0  0  0  0  0  0  0
   -8.5526   -1.4704   -2.3546 H   0  0  0  0  0  0  0  0  0  0  0  0
   -4.3397   -0.9918   -4.8322 H   0  0  0  0  0  0  0  0  0  0  0  0
   -5.8588   -0.4326   -5.5713 H   0  0  0  0  0  0  0  0  0  0  0  0
   -5.1709    0.4465   -4.1886 H   0  0  0  0  0  0  0  0  0  0  0  0
   -5.6833   -3.8363   -4.4920 H   0  0  0  0  0  0  0  0  0  0  0  0
   -7.2134   -3.9856   -3.5957 H   0  0  0  0  0  0  0  0  0  0  0  0
   -7.1964   -3.2126   -5.1969 H   0  0  0  0  0  0  0  0  0  0  0  0
   -7.4453   -5.3850    0.3305 H   0  0  0  0  0  0  0  0  0  0  0  0
   -7.7383   -5.5496    2.0747 H   0  0  0  0  0  0  0  0  0  0  0  0
   -8.1262   -4.0198    1.2528 H   0  0  0  0  0  0  0  0  0  0  0  0
   -3.4125   -5.2812    1.7376 H   0  0  0  0  0  0  0  0  0  0  0  0
   -4.6325   -6.3738    2.4430 H   0  0  0  0  0  0  0  0  0  0  0  0
   -4.5011   -6.2048    0.6742 H   0  0  0  0  0  0  0  0  0  0  0  0
   -4.5899   -3.0366    3.5662 H   0  0  0  0  0  0  0  0  0  0  0  0
   -6.2876   -2.5284    3.3798 H   0  0  0  0  0  0  0  0  0  0  0  0
   -5.8989   -4.0923    4.1441 H   0  0  0  0  0  0  0  0  0  0  0  0
   -0.6900    1.7660    1.2733 H   0  0  0  0  0  0  0  0  0  0  0  0
   -3.7802    4.7663    1.4386 H   0  0  0  0  0  0  0  0  0  0  0  0
   -4.5564    0.9713   -0.4273 H   0  0  0  0  0  0  0  0  0  0  0  0
   -5.9419    2.3453   -2.2845 H   0  0  0  0  0  0  0  0  0  0  0  0
   -7.2067    3.6000   -2.2834 H   0  0  0  0  0  0  0  0  0  0  0  0
   -5.4860    4.0598   -2.4026 H   0  0  0  0  0  0  0  0  0  0  0  0
   -7.2509    2.2635    1.8002 H   0  0  0  0  0  0  0  0  0  0  0  0
   -8.3228    2.4586    0.3889 H   0  0  0  0  0  0  0  0  0  0  0  0
   -7.0630    1.1994    0.3879 H   0  0  0  0  0  0  0  0  0  0  0  0
   -6.3460    5.2567    1.6447 H   0  0  0  0  0  0  0  0  0  0  0  0
   -5.7057    5.9120    0.1158 H   0  0  0  0  0  0  0  0  0  0  0  0
   -7.4316    5.5050    0.2574 H   0  0  0  0  0  0  0  0  0  0  0  0
   -1.0541    6.3442    0.8686 H   0  0  0  0  0  0  0  0  0  0  0  0
    0.3142    6.5486    1.9913 H   0  0  0  0  0  0  0  0  0  0  0  0
    0.4139    5.3530    0.6657 H   0  0  0  0  0  0  0  0  0  0  0  0
   -2.5433    4.5151    4.4686 H   0  0  0  0  0  0  0  0  0  0  0  0
   -1.4040    5.8847    4.5137 H   0  0  0  0  0  0  0  0  0  0  0  0
   -2.8097    5.9358    3.4290 H   0  0  0  0  0  0  0  0  0  0  0  0
   -0.1336    2.4962    3.7478 H   0  0  0  0  0  0  0  0  0  0  0  0
    1.0334    3.0155    2.5074 H   0  0  0  0  0  0  0  0  0  0  0  0
    0.8973    3.9204    4.0350 H   0  0  0  0  0  0  0  0  0  0  0  0
  1  2  2  0  0  0  0
  1  6  1  0  0  0  0
  1  7  1  0  0  0  0
  2  3  1  0  0  0  0
  2 21  1  0  0  0  0
  3  4  2  0  0  0  0
  3 79  1  0  0  0  0
  4  5  1  0  0  0  0
  4 19  1  0  0  0  0
  5  6  2  0  0  0  0
  5 80  1  0  0  0  0
  6 15  1  0  0  0  0
  7  8  2  0  0  0  0
  7 12  1  0  0  0  0
  8  9  1  0  0  0  0
  8 50  1  0  0  0  0
  9 10  2  0  0  0  0
  9 81  1  0  0  0  0
 10 11  1  0  0  0  0
 10 17  1  0  0  0  0
 11 12  2  0  0  0  0
 11 82  1  0  0  0  0
 12 13  1  0  0  0  0
 13 14  1  0  0  0  0
 14 83  1  0  0  0  0
 14 84  1  0  0  0  0
 14 85  1  0  0  0  0
 15 16  1  0  0  0  0
 16 86  1  0  0  0  0
 16 87  1  0  0  0  0
 16 88  1  0  0  0  0
 17 18  1  0  0  0  0
 18 89  1  0  0  0  0
 18 90  1  0  0  0  0
 18 91  1  0  0  0  0
 19 20  1  0  0  0  0
 20 92  1  0  0  0  0
 20 93  1  0  0  0  0
 20 94  1  0  0  0  0
 21 22  1  0  0  0  0
 21 36  1  0  0  0  0
 22 23  2  0  0  0  0
 22 27  1  0  0  0  0
 23 24  1  0  0  0  0
 23 95  1  0  0  0  0
 24 25  2  0  0  0  0
 24 32  1  0  0  0  0
 25 26  1  0  0  0  0
 25 96  1  0  0  0  0
 26 27  2  0  0  0  0
 26 28  1  0  0  0  0
 27 97  1  0  0  0  0
 28 29  1  0  0  0  0
 28 30  1  0  0  0  0
 28 31  1  0  0  0  0
 29 98  1  0  0  0  0
 29 99  1  0  0  0  0
 29100  1  0  0  0  0
 30101  1  0  0  0  0
 30102  1  0  0  0  0
 30103  1  0  0  0  0
 31104  1  0  0  0  0
 31105  1  0  0  0  0
 31106  1  0  0  0  0
 32 33  1  0  0  0  0
 32 34  1  0  0  0  0
 32 35  1  0  0  0  0
 33107  1  0  0  0  0
 33108  1  0  0  0  0
 33109  1  0  0  0  0
 34110  1  0  0  0  0
 34111  1  0  0  0  0
 34112  1  0  0  0  0
 35113  1  0  0  0  0
 35114  1  0  0  0  0
 35115  1  0  0  0  0
 36 37  2  0  0  0  0
 36 41  1  0  0  0  0
 37 38  1  0  0  0  0
 37116  1  0  0  0  0
 38 39  2  0  0  0  0
 38 46  1  0  0  0  0
 39 40  1  0  0  0  0
 39117  1  0  0  0  0
 40 41  2  0  0  0  0
 40 42  1  0  0  0  0
 41118  1  0  0  0  0
 42 43  1  0  0  0  0
 42 44  1  0  0  0  0
 42 45  1  0  0  0  0
 43119  1  0  0  0  0
 43120  1  0  0  0  0
 43121  1  0  0  0  0
 44122  1  0  0  0  0
 44123  1  0  0  0  0
 44124  1  0  0  0  0
 45125  1  0  0  0  0
 45126  1  0  0  0  0
 45127  1  0  0  0  0
 46 47  1  0  0  0  0
 46 48  1  0  0  0  0
 46 49  1  0  0  0  0
 47128  1  0  0  0  0
 47129  1  0  0  0  0
 47130  1  0  0  0  0
 48131  1  0  0  0  0
 48132  1  0  0  0  0
 48133  1  0  0  0  0
 49134  1  0  0  0  0
 49135  1  0  0  0  0
 49136  1  0  0  0  0
 50 51  1  0  0  0  0
 50 65  1  0  0  0  0
 51 52  2  0  0  0  0
 51 56  1  0  0  0  0
 52 53  1  0  0  0  0
 52137  1  0  0  0  0
 53 54  2  0  0  0  0
 53 61  1  0  0  0  0
 54 55  1  0  0  0  0
 54138  1  0  0  0  0
 55 56  2  0  0  0  0
 55 57  1  0  0  0  0
 56139  1  0  0  0  0
 57 58  1  0  0  0  0
 57 59  1  0  0  0  0
 57 60  1  0  0  0  0
 58140  1  0  0  0  0
 58141  1  0  0  0  0
 58142  1  0  0  0  0
 59143  1  0  0  0  0
 59144  1  0  0  0  0
 59145  1  0  0  0  0
 60146  1  0  0  0  0
 60147  1  0  0  0  0
 60148  1  0  0  0  0
 61 62  1  0  0  0  0
 61 63  1  0  0  0  0
 61 64  1  0  0  0  0
 62149  1  0  0  0  0
 62150  1  0  0  0  0
 62151  1  0  0  0  0
 63152  1  0  0  0  0
 63153  1  0  0  0  0
 63154  1  0  0  0  0
 64155  1  0  0  0  0
 64156  1  0  0  0  0
 64157  1  0  0  0  0
 65 66  2  0  0  0  0
 65 70  1  0  0  0  0
 66 67  1  0  0  0  0
 66158  1  0  0  0  0
 67 68  2  0  0  0  0
 67 75  1  0  0  0  0
 68 69  1  0  0  0  0
 68159  1  0  0  0  0
 69 70  2  0  0  0  0
 69 71  1  0  0  0  0
 70160  1  0  0  0  0
 71 72  1  0  0  0  0
 71 73  1  0  0  0  0
 71 74  1  0  0  0  0
 72161  1  0  0  0  0
 72162  1  0  0  0  0
 72163  1  0  0  0  0
 73164  1  0  0  0  0
 73165  1  0  0  0  0
 73166  1  0  0  0  0
 74167  1  0  0  0  0
 74168  1  0  0  0  0
 74169  1  0  0  0  0
 75 76  1  0  0  0  0
 75 77  1  0  0  0  0
 75 78  1  0  0  0  0
 76170  1  0  0  0  0
 76171  1  0  0  0  0
 76172  1  0  0  0  0
 77173  1  0  0  0  0
 77174  1  0  0  0  0
 77175  1  0  0  0  0
 78176  1  0  0  0  0
 78177  1  0  0  0  0
 78178  1  0  0  0  0
M  END
$$$$
