Title Card Required
 OpenBabel03192317513D

106111  0  0  0  0  0  0  0  0999 V2000
   -0.4827    1.3829   -0.6716 C   0  0  0  0  0  0  0  0  0  0  0  0
   -1.5956    0.5347   -0.5763 C   0  0  0  0  0  0  0  0  0  0  0  0
   -2.6366    0.6345   -1.5137 C   0  0  0  0  0  0  0  0  0  0  0  0
   -2.5567    1.5394   -2.5688 C   0  0  0  0  0  0  0  0  0  0  0  0
   -1.4238    2.3496   -2.7136 C   0  0  0  0  0  0  0  0  0  0  0  0
   -0.3968    2.2615   -1.7811 C   0  0  0  0  0  0  0  0  0  0  0  0
    0.5659    1.5433    0.3847 C   0  0  0  0  0  0  0  0  0  0  0  0
    1.5639    0.5901    0.6825 C   0  0  0  0  0  0  0  0  0  0  0  0
    2.5486    0.8881    1.6240 C   0  0  0  0  0  0  0  0  0  0  0  0
    2.5670    2.1105    2.3010 C   0  0  0  0  0  0  0  0  0  0  0  0
    1.5959    3.0668    2.0072 C   0  0  0  0  0  0  0  0  0  0  0  0
    0.6232    2.7844    1.0462 C   0  0  0  0  0  0  0  0  0  0  0  0
   -0.2201    3.8129    0.7239 O   0  0  0  0  0  0  0  0  0  0  0  0
   -1.5541    3.7156    1.1662 C   0  0  0  0  0  0  0  0  0  0  0  0
    0.7380    2.9849   -1.8725 O   0  0  0  0  0  0  0  0  0  0  0  0
    0.7977    4.0294   -2.8046 C   0  0  0  0  0  0  0  0  0  0  0  0
    3.5618    2.2914    3.1995 O   0  0  0  0  0  0  0  0  0  0  0  0
    3.6325    3.5213    3.8690 C   0  0  0  0  0  0  0  0  0  0  0  0
   -3.5187    1.6956   -3.5068 O   0  0  0  0  0  0  0  0  0  0  0  0
   -4.6470    0.8654   -3.4359 C   0  0  0  0  0  0  0  0  0  0  0  0
   -1.6356   -0.6762    0.8272 P   0  0  0  0  0  0  0  0  0  0  0  0
   -2.6219    0.3397    2.0742 C   0  0  0  0  0  0  0  0  0  0  0  0
   -2.8330   -0.3966    3.4050 C   0  0  0  0  0  0  0  0  0  0  0  0
   -4.0625   -1.3039    3.3913 C   0  0  0  0  0  0  0  0  0  0  0  0
   -5.3221   -0.5401    2.9694 C   0  0  0  0  0  0  0  0  0  0  0  0
   -5.1464    0.2244    1.6537 C   0  0  0  0  0  0  0  0  0  0  0  0
   -3.8939    1.0946    1.6704 C   0  0  0  0  0  0  0  0  0  0  0  0
   -2.4393   -2.3246    0.2980 C   0  0  0  0  0  0  0  0  0  0  0  0
   -1.5948   -2.9379   -0.8457 C   0  0  0  0  0  0  0  0  0  0  0  0
   -2.1473   -2.6602   -2.2457 C   0  0  0  0  0  0  0  0  0  0  0  0
   -3.6008   -3.1109   -2.3838 C   0  0  0  0  0  0  0  0  0  0  0  0
   -4.4960   -2.4949   -1.3082 C   0  0  0  0  0  0  0  0  0  0  0  0
   -3.9170   -2.7168    0.0878 C   0  0  0  0  0  0  0  0  0  0  0  0
    1.6677   -0.9497   -0.3494 P   0  0  0  0  0  0  0  0  0  0  0  0
    3.3955   -0.7309   -1.0769 C   0  0  0  0  0  0  0  0  0  0  0  0
    3.5507   -1.6914   -2.2688 C   0  0  0  0  0  0  0  0  0  0  0  0
    4.9130   -1.5445   -2.9467 C   0  0  0  0  0  0  0  0  0  0  0  0
    5.1251   -0.1124   -3.4318 C   0  0  0  0  0  0  0  0  0  0  0  0
    4.9408    0.8804   -2.2862 C   0  0  0  0  0  0  0  0  0  0  0  0
    3.5920    0.7083   -1.5833 C   0  0  0  0  0  0  0  0  0  0  0  0
    1.7041   -2.3612    0.9196 C   0  0  0  0  0  0  0  0  0  0  0  0
    2.2824   -2.2003    2.3327 C   0  0  0  0  0  0  0  0  0  0  0  0
    3.7952   -2.3970    2.4197 C   0  0  0  0  0  0  0  0  0  0  0  0
    4.1861   -3.7655    1.8652 C   0  0  0  0  0  0  0  0  0  0  0  0
    3.7090   -3.9044    0.4212 C   0  0  0  0  0  0  0  0  0  0  0  0
    2.1974   -3.6834    0.2988 C   0  0  0  0  0  0  0  0  0  0  0  0
   -3.5037   -0.0057   -1.3959 H   0  0  0  0  0  0  0  0  0  0  0  0
   -1.3853    3.0224   -3.5676 H   0  0  0  0  0  0  0  0  0  0  0  0
    3.3616    0.1945    1.8348 H   0  0  0  0  0  0  0  0  0  0  0  0
    1.5734    4.0523    2.4682 H   0  0  0  0  0  0  0  0  0  0  0  0
   -2.1049    2.9273    0.6301 H   0  0  0  0  0  0  0  0  0  0  0  0
   -1.5990    3.5180    2.2518 H   0  0  0  0  0  0  0  0  0  0  0  0
   -2.0301    4.6828    0.9616 H   0  0  0  0  0  0  0  0  0  0  0  0
    0.7499    3.6545   -3.8406 H   0  0  0  0  0  0  0  0  0  0  0  0
   -0.0197    4.7514   -2.6434 H   0  0  0  0  0  0  0  0  0  0  0  0
    1.7596    4.5311   -2.6513 H   0  0  0  0  0  0  0  0  0  0  0  0
    3.7806    4.3572    3.1650 H   0  0  0  0  0  0  0  0  0  0  0  0
    2.7219    3.7130    4.4611 H   0  0  0  0  0  0  0  0  0  0  0  0
    4.4932    3.4648    4.5447 H   0  0  0  0  0  0  0  0  0  0  0  0
   -4.3694   -0.1993   -3.5223 H   0  0  0  0  0  0  0  0  0  0  0  0
   -5.1996    1.0110   -2.4917 H   0  0  0  0  0  0  0  0  0  0  0  0
   -5.2939    1.1384   -4.2769 H   0  0  0  0  0  0  0  0  0  0  0  0
   -1.8388    1.0996    2.2503 H   0  0  0  0  0  0  0  0  0  0  0  0
   -1.9294   -0.9673    3.6713 H   0  0  0  0  0  0  0  0  0  0  0  0
   -2.9702    0.3644    4.1938 H   0  0  0  0  0  0  0  0  0  0  0  0
   -3.8846   -2.1521    2.7130 H   0  0  0  0  0  0  0  0  0  0  0  0
   -4.2124   -1.7412    4.3904 H   0  0  0  0  0  0  0  0  0  0  0  0
   -6.1809   -1.2263    2.9036 H   0  0  0  0  0  0  0  0  0  0  0  0
   -5.5660    0.1889    3.7623 H   0  0  0  0  0  0  0  0  0  0  0  0
   -5.0863   -0.4712    0.8028 H   0  0  0  0  0  0  0  0  0  0  0  0
   -6.0313    0.8530    1.4689 H   0  0  0  0  0  0  0  0  0  0  0  0
   -4.0391    1.9040    2.4109 H   0  0  0  0  0  0  0  0  0  0  0  0
   -3.7631    1.5832    0.6940 H   0  0  0  0  0  0  0  0  0  0  0  0
   -2.1385   -2.8666    1.2122 H   0  0  0  0  0  0  0  0  0  0  0  0
   -0.5527   -2.5894   -0.7934 H   0  0  0  0  0  0  0  0  0  0  0  0
   -1.5768   -4.0322   -0.6936 H   0  0  0  0  0  0  0  0  0  0  0  0
   -2.0582   -1.5877   -2.4731 H   0  0  0  0  0  0  0  0  0  0  0  0
   -1.5215   -3.1831   -2.9848 H   0  0  0  0  0  0  0  0  0  0  0  0
   -3.9857   -2.8768   -3.3891 H   0  0  0  0  0  0  0  0  0  0  0  0
   -3.6435   -4.2100   -2.2834 H   0  0  0  0  0  0  0  0  0  0  0  0
   -4.6516   -1.4226   -1.5036 H   0  0  0  0  0  0  0  0  0  0  0  0
   -5.4993   -2.9466   -1.3514 H   0  0  0  0  0  0  0  0  0  0  0  0
   -3.9486   -3.8072    0.2703 H   0  0  0  0  0  0  0  0  0  0  0  0
   -4.5706   -2.2783    0.8492 H   0  0  0  0  0  0  0  0  0  0  0  0
    4.1751   -0.9447   -0.3237 H   0  0  0  0  0  0  0  0  0  0  0  0
    3.3873   -2.7363   -1.9708 H   0  0  0  0  0  0  0  0  0  0  0  0
    2.7541   -1.4543   -2.9958 H   0  0  0  0  0  0  0  0  0  0  0  0
    5.7079   -1.8104   -2.2271 H   0  0  0  0  0  0  0  0  0  0  0  0
    4.9959   -2.2531   -3.7851 H   0  0  0  0  0  0  0  0  0  0  0  0
    6.1215    0.0021   -3.8860 H   0  0  0  0  0  0  0  0  0  0  0  0
    4.3876    0.1080   -4.2232 H   0  0  0  0  0  0  0  0  0  0  0  0
    5.7479    0.7317   -1.5474 H   0  0  0  0  0  0  0  0  0  0  0  0
    5.0395    1.9137   -2.6534 H   0  0  0  0  0  0  0  0  0  0  0  0
    2.7705    0.9553   -2.2813 H   0  0  0  0  0  0  0  0  0  0  0  0
    3.5134    1.4285   -0.7579 H   0  0  0  0  0  0  0  0  0  0  0  0
    0.6157   -2.4559    1.0572 H   0  0  0  0  0  0  0  0  0  0  0  0
    1.9671   -1.2460    2.7748 H   0  0  0  0  0  0  0  0  0  0  0  0
    1.8144   -2.9868    2.9536 H   0  0  0  0  0  0  0  0  0  0  0  0
    4.3220   -1.6176    1.8423 H   0  0  0  0  0  0  0  0  0  0  0  0
    4.1273   -2.2905    3.4638 H   0  0  0  0  0  0  0  0  0  0  0  0
    5.2749   -3.9143    1.9238 H   0  0  0  0  0  0  0  0  0  0  0  0
    3.7228   -4.5526    2.4859 H   0  0  0  0  0  0  0  0  0  0  0  0
    4.2555   -3.1711   -0.1921 H   0  0  0  0  0  0  0  0  0  0  0  0
    3.9669   -4.8980    0.0224 H   0  0  0  0  0  0  0  0  0  0  0  0
    1.6946   -4.5087    0.8341 H   0  0  0  0  0  0  0  0  0  0  0  0
    1.8740   -3.7644   -0.7524 H   0  0  0  0  0  0  0  0  0  0  0  0
  1  2  2  0  0  0  0
  1  6  1  0  0  0  0
  1  7  1  0  0  0  0
  2  3  1  0  0  0  0
  2 21  1  0  0  0  0
  3  4  2  0  0  0  0
  3 47  1  0  0  0  0
  4  5  1  0  0  0  0
  4 19  1  0  0  0  0
  5  6  2  0  0  0  0
  5 48  1  0  0  0  0
  6 15  1  0  0  0  0
  7  8  2  0  0  0  0
  7 12  1  0  0  0  0
  8  9  1  0  0  0  0
  8 34  1  0  0  0  0
  9 10  2  0  0  0  0
  9 49  1  0  0  0  0
 10 11  1  0  0  0  0
 10 17  1  0  0  0  0
 11 12  2  0  0  0  0
 11 50  1  0  0  0  0
 12 13  1  0  0  0  0
 13 14  1  0  0  0  0
 14 51  1  0  0  0  0
 14 52  1  0  0  0  0
 14 53  1  0  0  0  0
 15 16  1  0  0  0  0
 16 54  1  0  0  0  0
 16 55  1  0  0  0  0
 16 56  1  0  0  0  0
 17 18  1  0  0  0  0
 18 57  1  0  0  0  0
 18 58  1  0  0  0  0
 18 59  1  0  0  0  0
 19 20  1  0  0  0  0
 20 60  1  0  0  0  0
 20 61  1  0  0  0  0
 20 62  1  0  0  0  0
 21 22  1  0  0  0  0
 21 28  1  0  0  0  0
 22 23  1  0  0  0  0
 22 27  1  0  0  0  0
 22 63  1  0  0  0  0
 23 24  1  0  0  0  0
 23 64  1  0  0  0  0
 23 65  1  0  0  0  0
 24 25  1  0  0  0  0
 24 66  1  0  0  0  0
 24 67  1  0  0  0  0
 25 26  1  0  0  0  0
 25 68  1  0  0  0  0
 25 69  1  0  0  0  0
 26 27  1  0  0  0  0
 26 70  1  0  0  0  0
 26 71  1  0  0  0  0
 27 72  1  0  0  0  0
 27 73  1  0  0  0  0
 28 29  1  0  0  0  0
 28 33  1  0  0  0  0
 28 74  1  0  0  0  0
 29 30  1  0  0  0  0
 29 75  1  0  0  0  0
 29 76  1  0  0  0  0
 30 31  1  0  0  0  0
 30 77  1  0  0  0  0
 30 78  1  0  0  0  0
 31 32  1  0  0  0  0
 31 79  1  0  0  0  0
 31 80  1  0  0  0  0
 32 33  1  0  0  0  0
 32 81  1  0  0  0  0
 32 82  1  0  0  0  0
 33 83  1  0  0  0  0
 33 84  1  0  0  0  0
 34 35  1  0  0  0  0
 34 41  1  0  0  0  0
 35 36  1  0  0  0  0
 35 40  1  0  0  0  0
 35 85  1  0  0  0  0
 36 37  1  0  0  0  0
 36 86  1  0  0  0  0
 36 87  1  0  0  0  0
 37 38  1  0  0  0  0
 37 88  1  0  0  0  0
 37 89  1  0  0  0  0
 38 39  1  0  0  0  0
 38 90  1  0  0  0  0
 38 91  1  0  0  0  0
 39 40  1  0  0  0  0
 39 92  1  0  0  0  0
 39 93  1  0  0  0  0
 40 94  1  0  0  0  0
 40 95  1  0  0  0  0
 41 42  1  0  0  0  0
 41 46  1  0  0  0  0
 41 96  1  0  0  0  0
 42 43  1  0  0  0  0
 42 97  1  0  0  0  0
 42 98  1  0  0  0  0
 43 44  1  0  0  0  0
 43 99  1  0  0  0  0
 43100  1  0  0  0  0
 44 45  1  0  0  0  0
 44101  1  0  0  0  0
 44102  1  0  0  0  0
 45 46  1  0  0  0  0
 45103  1  0  0  0  0
 45104  1  0  0  0  0
 46105  1  0  0  0  0
 46106  1  0  0  0  0
M  END
$$$$
