Title Card Required
 OpenBabel03192317563D

190197  0  0  0  0  0  0  0  0999 V2000
   -0.3696   -3.8026    3.2239 O   0  0  0  0  0  0  0  0  0  0  0  0
    0.2522   -3.0297    2.2952 C   0  0  0  0  0  0  0  0  0  0  0  0
   -0.3433   -2.7337    1.0606 C   0  0  0  0  0  0  0  0  0  0  0  0
   -1.5930   -3.1838    0.7572 O   0  0  0  0  0  0  0  0  0  0  0  0
   -2.3469   -3.5719    1.8876 C   0  0  0  0  0  0  0  0  0  0  0  0
   -1.5110   -4.4898    2.7548 C   0  0  0  0  0  0  0  0  0  0  0  0
    0.3279   -1.9414    0.1175 C   0  0  0  0  0  0  0  0  0  0  0  0
    1.5996   -1.4352    0.4162 C   0  0  0  0  0  0  0  0  0  0  0  0
    2.1811   -1.7339    1.6577 C   0  0  0  0  0  0  0  0  0  0  0  0
    1.5181   -2.5207    2.5879 C   0  0  0  0  0  0  0  0  0  0  0  0
    0.0310   -2.4876   -4.7457 O   0  0  0  0  0  0  0  0  0  0  0  0
   -0.4393   -1.9521   -3.5892 C   0  0  0  0  0  0  0  0  0  0  0  0
    0.1602   -2.2162   -2.3490 C   0  0  0  0  0  0  0  0  0  0  0  0
    1.2702   -3.0053   -2.2608 O   0  0  0  0  0  0  0  0  0  0  0  0
    1.9612   -3.1413   -3.4854 C   0  0  0  0  0  0  0  0  0  0  0  0
    0.9831   -3.5150   -4.5800 C   0  0  0  0  0  0  0  0  0  0  0  0
   -0.3576   -1.6457   -1.1763 C   0  0  0  0  0  0  0  0  0  0  0  0
   -1.4779   -0.8033   -1.2490 C   0  0  0  0  0  0  0  0  0  0  0  0
   -2.0530   -0.5315   -2.4994 C   0  0  0  0  0  0  0  0  0  0  0  0
   -1.5465   -1.1060   -3.6557 C   0  0  0  0  0  0  0  0  0  0  0  0
   -2.1271   -0.0348    0.3039 P   0  0  0  0  0  0  0  0  0  0  0  0
   -2.6800    1.5801   -0.3969 C   0  0  0  0  0  0  0  0  0  0  0  0
   -3.9995    1.9029   -0.6956 C   0  0  0  0  0  0  0  0  0  0  0  0
   -4.3522    3.1115   -1.3100 C   0  0  0  0  0  0  0  0  0  0  0  0
   -3.3035    3.9849   -1.6693 C   0  0  0  0  0  0  0  0  0  0  0  0
   -1.9608    3.7375   -1.2973 C   0  0  0  0  0  0  0  0  0  0  0  0
   -1.6856    2.5207   -0.6667 C   0  0  0  0  0  0  0  0  0  0  0  0
   -3.5897    5.0969   -2.4189 O   0  0  0  0  0  0  0  0  0  0  0  0
   -3.5155    4.8671   -3.8048 C   0  0  0  0  0  0  0  0  0  0  0  0
   -0.7676    4.6985   -1.4952 C   0  0  0  0  0  0  0  0  0  0  0  0
   -1.1018    6.1025   -2.0207 C   0  0  0  0  0  0  0  0  0  0  0  0
   -0.1026    4.8983   -0.1190 C   0  0  0  0  0  0  0  0  0  0  0  0
    0.2456    4.0476   -2.4532 C   0  0  0  0  0  0  0  0  0  0  0  0
   -5.8606    3.3531   -1.5403 C   0  0  0  0  0  0  0  0  0  0  0  0
   -6.5973    3.1073   -0.2070 C   0  0  0  0  0  0  0  0  0  0  0  0
   -6.2515    4.7700   -1.9891 C   0  0  0  0  0  0  0  0  0  0  0  0
   -6.3775    2.3480   -2.5844 C   0  0  0  0  0  0  0  0  0  0  0  0
   -3.7404   -0.8989    0.5201 C   0  0  0  0  0  0  0  0  0  0  0  0
   -4.1609   -1.9494   -0.2823 C   0  0  0  0  0  0  0  0  0  0  0  0
   -5.3452   -2.6613   -0.0338 C   0  0  0  0  0  0  0  0  0  0  0  0
   -6.0708   -2.3098    1.1194 C   0  0  0  0  0  0  0  0  0  0  0  0
   -5.7452   -1.1653    1.8940 C   0  0  0  0  0  0  0  0  0  0  0  0
   -4.5607   -0.4974    1.5828 C   0  0  0  0  0  0  0  0  0  0  0  0
   -7.1282   -3.0841    1.5351 O   0  0  0  0  0  0  0  0  0  0  0  0
   -6.7273   -4.2548    2.2112 C   0  0  0  0  0  0  0  0  0  0  0  0
   -6.6996   -0.6243    2.9752 C   0  0  0  0  0  0  0  0  0  0  0  0
   -6.9069   -1.6146    4.1341 C   0  0  0  0  0  0  0  0  0  0  0  0
   -6.1643    0.6799    3.5810 C   0  0  0  0  0  0  0  0  0  0  0  0
   -8.0576   -0.3141    2.3201 C   0  0  0  0  0  0  0  0  0  0  0  0
   -5.7359   -3.7327   -1.0754 C   0  0  0  0  0  0  0  0  0  0  0  0
   -4.7503   -4.9116   -1.0001 C   0  0  0  0  0  0  0  0  0  0  0  0
   -7.1775   -4.2560   -0.9701 C   0  0  0  0  0  0  0  0  0  0  0  0
   -5.6254   -3.0938   -2.4776 C   0  0  0  0  0  0  0  0  0  0  0  0
    2.4696   -0.3503   -0.8087 P   0  0  0  0  0  0  0  0  0  0  0  0
    2.5167    1.2528    0.1064 C   0  0  0  0  0  0  0  0  0  0  0  0
    1.8181    1.4998    1.2838 C   0  0  0  0  0  0  0  0  0  0  0  0
    1.9377    2.7090    1.9902 C   0  0  0  0  0  0  0  0  0  0  0  0
    2.8748    3.6426    1.5032 C   0  0  0  0  0  0  0  0  0  0  0  0
    3.5068    3.4869    0.2418 C   0  0  0  0  0  0  0  0  0  0  0  0
    3.2866    2.2890   -0.4395 C   0  0  0  0  0  0  0  0  0  0  0  0
    3.1929    4.7574    2.2388 O   0  0  0  0  0  0  0  0  0  0  0  0
    4.0768    4.5004    3.3092 C   0  0  0  0  0  0  0  0  0  0  0  0
    4.3605    4.6075   -0.3866 C   0  0  0  0  0  0  0  0  0  0  0  0
    5.5808    4.9758    0.4767 C   0  0  0  0  0  0  0  0  0  0  0  0
    4.8909    4.1872   -1.7639 C   0  0  0  0  0  0  0  0  0  0  0  0
    3.4971    5.8644   -0.5828 C   0  0  0  0  0  0  0  0  0  0  0  0
    1.0199    2.8915    3.2223 C   0  0  0  0  0  0  0  0  0  0  0  0
    1.4944    1.9738    4.3628 C   0  0  0  0  0  0  0  0  0  0  0  0
    0.8966    4.3388    3.7284 C   0  0  0  0  0  0  0  0  0  0  0  0
   -0.4145    2.4647    2.8410 C   0  0  0  0  0  0  0  0  0  0  0  0
    4.1840   -0.9880   -0.5033 C   0  0  0  0  0  0  0  0  0  0  0  0
    4.3960   -2.3258   -0.8268 C   0  0  0  0  0  0  0  0  0  0  0  0
    5.6077   -2.9814   -0.5789 C   0  0  0  0  0  0  0  0  0  0  0  0
    6.6689   -2.1903   -0.0864 C   0  0  0  0  0  0  0  0  0  0  0  0
    6.4794   -0.8464    0.3107 C   0  0  0  0  0  0  0  0  0  0  0  0
    5.2231   -0.2724    0.0889 C   0  0  0  0  0  0  0  0  0  0  0  0
    7.9291   -2.7235    0.0457 O   0  0  0  0  0  0  0  0  0  0  0  0
    8.6429   -2.8125   -1.1676 C   0  0  0  0  0  0  0  0  0  0  0  0
    7.5645   -0.0632    1.0755 C   0  0  0  0  0  0  0  0  0  0  0  0
    8.8714    0.0853    0.2774 C   0  0  0  0  0  0  0  0  0  0  0  0
    7.0855    1.3562    1.4116 C   0  0  0  0  0  0  0  0  0  0  0  0
    7.8563   -0.7945    2.3977 C   0  0  0  0  0  0  0  0  0  0  0  0
    5.6388   -4.5112   -0.8002 C   0  0  0  0  0  0  0  0  0  0  0  0
    5.6735   -4.8280   -2.3042 C   0  0  0  0  0  0  0  0  0  0  0  0
    6.7941   -5.2404   -0.0930 C   0  0  0  0  0  0  0  0  0  0  0  0
    4.3427   -5.1146   -0.2136 C   0  0  0  0  0  0  0  0  0  0  0  0
   -3.2512   -4.0698    1.5136 H   0  0  0  0  0  0  0  0  0  0  0  0
   -2.6478   -2.6754    2.4595 H   0  0  0  0  0  0  0  0  0  0  0  0
   -2.0702   -4.8232    3.6381 H   0  0  0  0  0  0  0  0  0  0  0  0
   -1.2033   -5.3738    2.1689 H   0  0  0  0  0  0  0  0  0  0  0  0
    3.1723   -1.3410    1.8950 H   0  0  0  0  0  0  0  0  0  0  0  0
    1.9588   -2.7650    3.5550 H   0  0  0  0  0  0  0  0  0  0  0  0
    2.7139   -3.9274   -3.3445 H   0  0  0  0  0  0  0  0  0  0  0  0
    2.4681   -2.1907   -3.7307 H   0  0  0  0  0  0  0  0  0  0  0  0
    1.4909   -3.6438   -5.5441 H   0  0  0  0  0  0  0  0  0  0  0  0
    0.4761   -4.4585   -4.3119 H   0  0  0  0  0  0  0  0  0  0  0  0
   -2.9117    0.1404   -2.5637 H   0  0  0  0  0  0  0  0  0  0  0  0
   -1.9849   -0.9146   -4.6357 H   0  0  0  0  0  0  0  0  0  0  0  0
   -4.7823    1.1790   -0.4671 H   0  0  0  0  0  0  0  0  0  0  0  0
   -0.6531    2.2806   -0.3925 H   0  0  0  0  0  0  0  0  0  0  0  0
   -2.5139    4.5082   -4.0985 H   0  0  0  0  0  0  0  0  0  0  0  0
   -4.2585    4.1167   -4.1274 H   0  0  0  0  0  0  0  0  0  0  0  0
   -3.7214    5.8204   -4.3091 H   0  0  0  0  0  0  0  0  0  0  0  0
   -1.8766    6.5932   -1.4185 H   0  0  0  0  0  0  0  0  0  0  0  0
   -0.1834    6.7073   -1.9688 H   0  0  0  0  0  0  0  0  0  0  0  0
   -1.4315    6.1001   -3.0666 H   0  0  0  0  0  0  0  0  0  0  0  0
    0.3238    3.9657    0.2745 H   0  0  0  0  0  0  0  0  0  0  0  0
    0.7200    5.6234   -0.1967 H   0  0  0  0  0  0  0  0  0  0  0  0
   -0.8323    5.2840    0.6100 H   0  0  0  0  0  0  0  0  0  0  0  0
    0.6179    3.0879   -2.0637 H   0  0  0  0  0  0  0  0  0  0  0  0
   -0.2076    3.8628   -3.4393 H   0  0  0  0  0  0  0  0  0  0  0  0
    1.1107    4.7144   -2.5965 H   0  0  0  0  0  0  0  0  0  0  0  0
   -6.2416    3.8063    0.5648 H   0  0  0  0  0  0  0  0  0  0  0  0
   -7.6771    3.2678   -0.3454 H   0  0  0  0  0  0  0  0  0  0  0  0
   -6.4592    2.0845    0.1690 H   0  0  0  0  0  0  0  0  0  0  0  0
   -5.9488    4.9875   -3.0199 H   0  0  0  0  0  0  0  0  0  0  0  0
   -7.3482    4.8524   -1.9431 H   0  0  0  0  0  0  0  0  0  0  0  0
   -5.8152    5.5379   -1.3379 H   0  0  0  0  0  0  0  0  0  0  0  0
   -5.8750    2.4916   -3.5529 H   0  0  0  0  0  0  0  0  0  0  0  0
   -6.2052    1.3094   -2.2646 H   0  0  0  0  0  0  0  0  0  0  0  0
   -7.4595    2.4835   -2.7377 H   0  0  0  0  0  0  0  0  0  0  0  0
   -3.5317   -2.2449   -1.1211 H   0  0  0  0  0  0  0  0  0  0  0  0
   -4.2529    0.3651    2.1762 H   0  0  0  0  0  0  0  0  0  0  0  0
   -6.1143   -4.9030    1.5650 H   0  0  0  0  0  0  0  0  0  0  0  0
   -6.1433   -4.0125    3.1142 H   0  0  0  0  0  0  0  0  0  0  0  0
   -7.6377   -4.7953    2.5017 H   0  0  0  0  0  0  0  0  0  0  0  0
   -5.9426   -1.9691    4.5306 H   0  0  0  0  0  0  0  0  0  0  0  0
   -7.4409   -1.1099    4.9536 H   0  0  0  0  0  0  0  0  0  0  0  0
   -7.5098   -2.4768    3.8280 H   0  0  0  0  0  0  0  0  0  0  0  0
   -6.0092    1.4551    2.8163 H   0  0  0  0  0  0  0  0  0  0  0  0
   -6.8966    1.0661    4.3047 H   0  0  0  0  0  0  0  0  0  0  0  0
   -5.2154    0.5248    4.1158 H   0  0  0  0  0  0  0  0  0  0  0  0
   -7.9415    0.4483    1.5350 H   0  0  0  0  0  0  0  0  0  0  0  0
   -8.4954   -1.2160    1.8744 H   0  0  0  0  0  0  0  0  0  0  0  0
   -8.7564    0.0779    3.0756 H   0  0  0  0  0  0  0  0  0  0  0  0
   -4.8376   -5.4504   -0.0440 H   0  0  0  0  0  0  0  0  0  0  0  0
   -4.9555   -5.6317   -1.8074 H   0  0  0  0  0  0  0  0  0  0  0  0
   -3.7093   -4.5679   -1.1012 H   0  0  0  0  0  0  0  0  0  0  0  0
   -7.8998   -3.4305   -0.9175 H   0  0  0  0  0  0  0  0  0  0  0  0
   -7.3948   -4.8488   -1.8714 H   0  0  0  0  0  0  0  0  0  0  0  0
   -7.3441   -4.9074   -0.1055 H   0  0  0  0  0  0  0  0  0  0  0  0
   -6.2867   -2.2176   -2.5535 H   0  0  0  0  0  0  0  0  0  0  0  0
   -4.6040   -2.7738   -2.7226 H   0  0  0  0  0  0  0  0  0  0  0  0
   -5.9354   -3.8252   -3.2388 H   0  0  0  0  0  0  0  0  0  0  0  0
    1.1578    0.7253    1.6747 H   0  0  0  0  0  0  0  0  0  0  0  0
    3.7600    2.1220   -1.4078 H   0  0  0  0  0  0  0  0  0  0  0  0
    3.6397    3.7977    4.0338 H   0  0  0  0  0  0  0  0  0  0  0  0
    5.0279    4.0780    2.9476 H   0  0  0  0  0  0  0  0  0  0  0  0
    4.2705    5.4589    3.8081 H   0  0  0  0  0  0  0  0  0  0  0  0
    6.1374    4.0798    0.7902 H   0  0  0  0  0  0  0  0  0  0  0  0
    6.2632    5.6067   -0.1132 H   0  0  0  0  0  0  0  0  0  0  0  0
    5.2901    5.5467    1.3652 H   0  0  0  0  0  0  0  0  0  0  0  0
    4.0755    3.9398   -2.4591 H   0  0  0  0  0  0  0  0  0  0  0  0
    5.4597    5.0214   -2.1992 H   0  0  0  0  0  0  0  0  0  0  0  0
    5.5652    3.3195   -1.6959 H   0  0  0  0  0  0  0  0  0  0  0  0
    2.6813    5.6648   -1.2927 H   0  0  0  0  0  0  0  0  0  0  0  0
    3.0649    6.1987    0.3695 H   0  0  0  0  0  0  0  0  0  0  0  0
    4.1141    6.6793   -0.9932 H   0  0  0  0  0  0  0  0  0  0  0  0
    2.5127    2.2204    4.6963 H   0  0  0  0  0  0  0  0  0  0  0  0
    0.8202    2.0710    5.2279 H   0  0  0  0  0  0  0  0  0  0  0  0
    1.4911    0.9201    4.0451 H   0  0  0  0  0  0  0  0  0  0  0  0
    0.6777    5.0303    2.9032 H   0  0  0  0  0  0  0  0  0  0  0  0
    0.0622    4.3812    4.4442 H   0  0  0  0  0  0  0  0  0  0  0  0
    1.7898    4.7027    4.2478 H   0  0  0  0  0  0  0  0  0  0  0  0
   -0.8125    3.0983    2.0344 H   0  0  0  0  0  0  0  0  0  0  0  0
   -0.4877    1.4180    2.5175 H   0  0  0  0  0  0  0  0  0  0  0  0
   -1.0700    2.5840    3.7170 H   0  0  0  0  0  0  0  0  0  0  0  0
    3.5516   -2.8898   -1.2283 H   0  0  0  0  0  0  0  0  0  0  0  0
    5.0391    0.7525    0.4004 H   0  0  0  0  0  0  0  0  0  0  0  0
    8.1588   -3.5058   -1.8721 H   0  0  0  0  0  0  0  0  0  0  0  0
    8.7279   -1.8273   -1.6528 H   0  0  0  0  0  0  0  0  0  0  0  0
    9.6467   -3.1877   -0.9285 H   0  0  0  0  0  0  0  0  0  0  0  0
    8.6779    0.4713   -0.7355 H   0  0  0  0  0  0  0  0  0  0  0  0
    9.5304    0.8033    0.7893 H   0  0  0  0  0  0  0  0  0  0  0  0
    9.4135   -0.8635    0.2041 H   0  0  0  0  0  0  0  0  0  0  0  0
    6.1795    1.3554    2.0356 H   0  0  0  0  0  0  0  0  0  0  0  0
    7.8757    1.8819    1.9674 H   0  0  0  0  0  0  0  0  0  0  0  0
    6.8722    1.9328    0.4984 H   0  0  0  0  0  0  0  0  0  0  0  0
    6.9481   -0.8463    3.0168 H   0  0  0  0  0  0  0  0  0  0  0  0
    8.2127   -1.8154    2.2085 H   0  0  0  0  0  0  0  0  0  0  0  0
    8.6290   -0.2522    2.9652 H   0  0  0  0  0  0  0  0  0  0  0  0
    6.5953   -4.4666   -2.7816 H   0  0  0  0  0  0  0  0  0  0  0  0
    5.6104   -5.9155   -2.4650 H   0  0  0  0  0  0  0  0  0  0  0  0
    4.8268   -4.3524   -2.8206 H   0  0  0  0  0  0  0  0  0  0  0  0
    6.8647   -4.9446    0.9625 H   0  0  0  0  0  0  0  0  0  0  0  0
    6.5982   -6.3222   -0.1370 H   0  0  0  0  0  0  0  0  0  0  0  0
    7.7700   -5.0655   -0.5577 H   0  0  0  0  0  0  0  0  0  0  0  0
    4.2370   -4.8516    0.8494 H   0  0  0  0  0  0  0  0  0  0  0  0
    3.4350   -4.7787   -0.7330 H   0  0  0  0  0  0  0  0  0  0  0  0
    4.3825   -6.2109   -0.2963 H   0  0  0  0  0  0  0  0  0  0  0  0
  1  2  1  0  0  0  0
  1  6  1  0  0  0  0
  2  3  2  0  0  0  0
  2 10  1  0  0  0  0
  3  4  1  0  0  0  0
  3  7  1  0  0  0  0
  4  5  1  0  0  0  0
  5  6  1  0  0  0  0
  5 87  1  0  0  0  0
  5 88  1  0  0  0  0
  6 89  1  0  0  0  0
  6 90  1  0  0  0  0
  7  8  2  0  0  0  0
  7 17  1  0  0  0  0
  8  9  1  0  0  0  0
  8 54  1  0  0  0  0
  9 10  2  0  0  0  0
  9 91  1  0  0  0  0
 10 92  1  0  0  0  0
 11 12  1  0  0  0  0
 11 16  1  0  0  0  0
 12 13  2  0  0  0  0
 12 20  1  0  0  0  0
 13 14  1  0  0  0  0
 13 17  1  0  0  0  0
 14 15  1  0  0  0  0
 15 16  1  0  0  0  0
 15 93  1  0  0  0  0
 15 94  1  0  0  0  0
 16 95  1  0  0  0  0
 16 96  1  0  0  0  0
 17 18  2  0  0  0  0
 18 19  1  0  0  0  0
 18 21  1  0  0  0  0
 19 20  2  0  0  0  0
 19 97  1  0  0  0  0
 20 98  1  0  0  0  0
 21 22  1  0  0  0  0
 21 38  1  0  0  0  0
 22 23  2  0  0  0  0
 22 27  1  0  0  0  0
 23 24  1  0  0  0  0
 23 99  1  0  0  0  0
 24 25  2  0  0  0  0
 24 34  1  0  0  0  0
 25 26  1  0  0  0  0
 25 28  1  0  0  0  0
 26 27  2  0  0  0  0
 26 30  1  0  0  0  0
 27100  1  0  0  0  0
 28 29  1  0  0  0  0
 29101  1  0  0  0  0
 29102  1  0  0  0  0
 29103  1  0  0  0  0
 30 31  1  0  0  0  0
 30 32  1  0  0  0  0
 30 33  1  0  0  0  0
 31104  1  0  0  0  0
 31105  1  0  0  0  0
 31106  1  0  0  0  0
 32107  1  0  0  0  0
 32108  1  0  0  0  0
 32109  1  0  0  0  0
 33110  1  0  0  0  0
 33111  1  0  0  0  0
 33112  1  0  0  0  0
 34 35  1  0  0  0  0
 34 36  1  0  0  0  0
 34 37  1  0  0  0  0
 35113  1  0  0  0  0
 35114  1  0  0  0  0
 35115  1  0  0  0  0
 36116  1  0  0  0  0
 36117  1  0  0  0  0
 36118  1  0  0  0  0
 37119  1  0  0  0  0
 37120  1  0  0  0  0
 37121  1  0  0  0  0
 38 39  2  0  0  0  0
 38 43  1  0  0  0  0
 39 40  1  0  0  0  0
 39122  1  0  0  0  0
 40 41  2  0  0  0  0
 40 50  1  0  0  0  0
 41 42  1  0  0  0  0
 41 44  1  0  0  0  0
 42 43  2  0  0  0  0
 42 46  1  0  0  0  0
 43123  1  0  0  0  0
 44 45  1  0  0  0  0
 45124  1  0  0  0  0
 45125  1  0  0  0  0
 45126  1  0  0  0  0
 46 47  1  0  0  0  0
 46 48  1  0  0  0  0
 46 49  1  0  0  0  0
 47127  1  0  0  0  0
 47128  1  0  0  0  0
 47129  1  0  0  0  0
 48130  1  0  0  0  0
 48131  1  0  0  0  0
 48132  1  0  0  0  0
 49133  1  0  0  0  0
 49134  1  0  0  0  0
 49135  1  0  0  0  0
 50 51  1  0  0  0  0
 50 52  1  0  0  0  0
 50 53  1  0  0  0  0
 51136  1  0  0  0  0
 51137  1  0  0  0  0
 51138  1  0  0  0  0
 52139  1  0  0  0  0
 52140  1  0  0  0  0
 52141  1  0  0  0  0
 53142  1  0  0  0  0
 53143  1  0  0  0  0
 53144  1  0  0  0  0
 54 55  1  0  0  0  0
 54 71  1  0  0  0  0
 55 56  2  0  0  0  0
 55 60  1  0  0  0  0
 56 57  1  0  0  0  0
 56145  1  0  0  0  0
 57 58  2  0  0  0  0
 57 67  1  0  0  0  0
 58 59  1  0  0  0  0
 58 61  1  0  0  0  0
 59 60  2  0  0  0  0
 59 63  1  0  0  0  0
 60146  1  0  0  0  0
 61 62  1  0  0  0  0
 62147  1  0  0  0  0
 62148  1  0  0  0  0
 62149  1  0  0  0  0
 63 64  1  0  0  0  0
 63 65  1  0  0  0  0
 63 66  1  0  0  0  0
 64150  1  0  0  0  0
 64151  1  0  0  0  0
 64152  1  0  0  0  0
 65153  1  0  0  0  0
 65154  1  0  0  0  0
 65155  1  0  0  0  0
 66156  1  0  0  0  0
 66157  1  0  0  0  0
 66158  1  0  0  0  0
 67 68  1  0  0  0  0
 67 69  1  0  0  0  0
 67 70  1  0  0  0  0
 68159  1  0  0  0  0
 68160  1  0  0  0  0
 68161  1  0  0  0  0
 69162  1  0  0  0  0
 69163  1  0  0  0  0
 69164  1  0  0  0  0
 70165  1  0  0  0  0
 70166  1  0  0  0  0
 70167  1  0  0  0  0
 71 72  2  0  0  0  0
 71 76  1  0  0  0  0
 72 73  1  0  0  0  0
 72168  1  0  0  0  0
 73 74  2  0  0  0  0
 73 83  1  0  0  0  0
 74 75  1  0  0  0  0
 74 77  1  0  0  0  0
 75 76  2  0  0  0  0
 75 79  1  0  0  0  0
 76169  1  0  0  0  0
 77 78  1  0  0  0  0
 78170  1  0  0  0  0
 78171  1  0  0  0  0
 78172  1  0  0  0  0
 79 80  1  0  0  0  0
 79 81  1  0  0  0  0
 79 82  1  0  0  0  0
 80173  1  0  0  0  0
 80174  1  0  0  0  0
 80175  1  0  0  0  0
 81176  1  0  0  0  0
 81177  1  0  0  0  0
 81178  1  0  0  0  0
 82179  1  0  0  0  0
 82180  1  0  0  0  0
 82181  1  0  0  0  0
 83 84  1  0  0  0  0
 83 85  1  0  0  0  0
 83 86  1  0  0  0  0
 84182  1  0  0  0  0
 84183  1  0  0  0  0
 84184  1  0  0  0  0
 85185  1  0  0  0  0
 85186  1  0  0  0  0
 85187  1  0  0  0  0
 86188  1  0  0  0  0
 86189  1  0  0  0  0
 86190  1  0  0  0  0
M  END
$$$$
