Title Card Required
 OpenBabel03192317543D

 76 78  0  0  1  0  0  0  0  0999 V2000
   -0.9637   -0.9012    0.7681 N   0  0  0  0  0  0  0  0  0  0  0  0
   -0.0357   -1.8782    1.3188 C   0  0  2  0  0  0  0  0  0  0  0  0
    1.2246   -1.8657    0.4279 C   0  0  1  0  0  0  0  0  0  0  0  0
    2.2754   -2.5868    1.1298 N   0  0  0  0  0  0  0  0  0  0  0  0
    3.4684   -2.1561    1.1102 C   0  0  0  0  0  0  0  0  0  0  0  0
    3.9828   -0.9552    0.3766 C   0  0  0  0  0  0  0  0  0  0  0  0
    4.3812   -1.0895   -0.9545 C   0  0  0  0  0  0  0  0  0  0  0  0
    4.3097   -2.2680   -1.6280 O   0  0  0  0  0  0  0  0  0  0  0  0
    4.8846    0.0154   -1.6613 C   0  0  0  0  0  0  0  0  0  0  0  0
    5.3036   -0.1656   -3.0926 C   0  0  0  0  0  0  0  0  0  0  0  0
    4.9658    1.2358   -1.0008 C   0  0  0  0  0  0  0  0  0  0  0  0
    4.5725    1.4104    0.3370 C   0  0  0  0  0  0  0  0  0  0  0  0
    4.6854    2.7932    0.9856 C   0  0  0  0  0  0  0  0  0  0  0  0
    3.8234    3.7947    0.2000 C   0  0  0  0  0  0  0  0  0  0  0  0
    4.2081    2.7817    2.4401 C   0  0  0  0  0  0  0  0  0  0  0  0
    6.1533    3.2487    0.9587 C   0  0  0  0  0  0  0  0  0  0  0  0
    4.0881    0.2909    1.0105 C   0  0  0  0  0  0  0  0  0  0  0  0
    0.9244   -2.5365   -0.9197 C   0  0  0  0  0  0  0  0  0  0  0  0
    0.4094   -3.9650   -0.7437 C   0  0  0  0  0  0  0  0  0  0  0  0
   -0.8352   -3.9888    0.1453 C   0  0  0  0  0  0  0  0  0  0  0  0
   -0.5614   -3.3074    1.4887 C   0  0  0  0  0  0  0  0  0  0  0  0
   -2.2313   -1.0442    0.8100 C   0  0  0  0  0  0  0  0  0  0  0  0
   -3.1454   -0.0322    0.2853 C   0  0  0  0  0  0  0  0  0  0  0  0
   -4.5357   -0.2333    0.3694 C   0  0  0  0  0  0  0  0  0  0  0  0
   -5.4405    0.7031   -0.1099 C   0  0  0  0  0  0  0  0  0  0  0  0
   -4.9021    1.8701   -0.6917 C   0  0  0  0  0  0  0  0  0  0  0  0
   -3.5406    2.1126   -0.8004 C   0  0  0  0  0  0  0  0  0  0  0  0
   -2.6405    1.1456   -0.3026 C   0  0  0  0  0  0  0  0  0  0  0  0
   -1.3354    1.3827   -0.4070 O   0  0  0  0  0  0  0  0  0  0  0  0
   -6.9592    0.5254   -0.0309 C   0  0  0  0  0  0  0  0  0  0  0  0
   -2.9752    3.3563   -1.4233 C   0  0  0  0  0  0  0  0  0  0  0  0
   -7.5642    1.6696    0.7981 C   0  0  0  0  0  0  0  0  0  0  0  0
   -7.5532    0.5521   -1.4481 C   0  0  0  0  0  0  0  0  0  0  0  0
   -7.3402   -0.8027    0.6278 C   0  0  0  0  0  0  0  0  0  0  0  0
    0.2728   -1.4914    2.3063 H   0  0  0  0  0  0  0  0  0  0  0  0
    1.4998   -0.8128    0.2460 H   0  0  0  0  0  0  0  0  0  0  0  0
    4.2124   -2.7401    1.6787 H   0  0  0  0  0  0  0  0  0  0  0  0
    3.9378   -2.9551   -1.0605 H   0  0  0  0  0  0  0  0  0  0  0  0
    6.0804   -0.9394   -3.1771 H   0  0  0  0  0  0  0  0  0  0  0  0
    4.4559   -0.5034   -3.7069 H   0  0  0  0  0  0  0  0  0  0  0  0
    5.6904    0.7722   -3.5105 H   0  0  0  0  0  0  0  0  0  0  0  0
    5.3539    2.0897   -1.5624 H   0  0  0  0  0  0  0  0  0  0  0  0
    2.7666    3.4892    0.2068 H   0  0  0  0  0  0  0  0  0  0  0  0
    3.8987    4.7967    0.6503 H   0  0  0  0  0  0  0  0  0  0  0  0
    4.1467    3.8710   -0.8481 H   0  0  0  0  0  0  0  0  0  0  0  0
    4.8078    2.0962    3.0574 H   0  0  0  0  0  0  0  0  0  0  0  0
    4.3049    3.7900    2.8688 H   0  0  0  0  0  0  0  0  0  0  0  0
    3.1514    2.4852    2.5159 H   0  0  0  0  0  0  0  0  0  0  0  0
    6.7884    2.5476    1.5202 H   0  0  0  0  0  0  0  0  0  0  0  0
    6.5396    3.3067   -0.0691 H   0  0  0  0  0  0  0  0  0  0  0  0
    6.2526    4.2466    1.4132 H   0  0  0  0  0  0  0  0  0  0  0  0
    3.7698    0.3608    2.0511 H   0  0  0  0  0  0  0  0  0  0  0  0
    0.1610   -1.9229   -1.4263 H   0  0  0  0  0  0  0  0  0  0  0  0
    1.8244   -2.5070   -1.5526 H   0  0  0  0  0  0  0  0  0  0  0  0
    0.1859   -4.4073   -1.7260 H   0  0  0  0  0  0  0  0  0  0  0  0
    1.1965   -4.5830   -0.2817 H   0  0  0  0  0  0  0  0  0  0  0  0
   -1.6603   -3.4787   -0.3801 H   0  0  0  0  0  0  0  0  0  0  0  0
   -1.1658   -5.0246    0.3139 H   0  0  0  0  0  0  0  0  0  0  0  0
    0.2228   -3.8647    2.0215 H   0  0  0  0  0  0  0  0  0  0  0  0
   -1.4513   -3.3240    2.1362 H   0  0  0  0  0  0  0  0  0  0  0  0
   -2.7059   -1.9387    1.2492 H   0  0  0  0  0  0  0  0  0  0  0  0
   -4.8835   -1.1595    0.8306 H   0  0  0  0  0  0  0  0  0  0  0  0
   -5.5827    2.6325   -1.0813 H   0  0  0  0  0  0  0  0  0  0  0  0
   -0.8645    0.6035    0.0050 H   0  0  0  0  0  0  0  0  0  0  0  0
   -2.3337    3.8913   -0.7078 H   0  0  0  0  0  0  0  0  0  0  0  0
   -2.3373    3.1032   -2.2831 H   0  0  0  0  0  0  0  0  0  0  0  0
   -3.7737    4.0300   -1.7588 H   0  0  0  0  0  0  0  0  0  0  0  0
   -7.3549    2.6501    0.3462 H   0  0  0  0  0  0  0  0  0  0  0  0
   -8.6573    1.5563    0.8664 H   0  0  0  0  0  0  0  0  0  0  0  0
   -7.1508    1.6714    1.8175 H   0  0  0  0  0  0  0  0  0  0  0  0
   -7.1344   -0.2602   -2.0603 H   0  0  0  0  0  0  0  0  0  0  0  0
   -8.6465    0.4282   -1.4070 H   0  0  0  0  0  0  0  0  0  0  0  0
   -7.3412    1.5032   -1.9578 H   0  0  0  0  0  0  0  0  0  0  0  0
   -6.9519   -1.6605    0.0586 H   0  0  0  0  0  0  0  0  0  0  0  0
   -6.9575   -0.8672    1.6573 H   0  0  0  0  0  0  0  0  0  0  0  0
   -8.4354   -0.8955    0.6700 H   0  0  0  0  0  0  0  0  0  0  0  0
  1  2  1  0  0  0  0
  1 22  2  0  0  0  0
  2  3  1  0  0  0  0
  2 21  1  0  0  0  0
  2 35  1  1  0  0  0
  3  4  1  0  0  0  0
  3 18  1  0  0  0  0
  3 36  1  6  0  0  0
  4  5  2  0  0  0  0
  5  6  1  0  0  0  0
  5 37  1  0  0  0  0
  6  7  2  0  0  0  0
  6 17  1  0  0  0  0
  7  8  1  0  0  0  0
  7  9  1  0  0  0  0
  8 38  1  0  0  0  0
  9 10  1  0  0  0  0
  9 11  2  0  0  0  0
 10 39  1  0  0  0  0
 10 40  1  0  0  0  0
 10 41  1  0  0  0  0
 11 12  1  0  0  0  0
 11 42  1  0  0  0  0
 12 13  1  0  0  0  0
 12 17  2  0  0  0  0
 13 14  1  0  0  0  0
 13 15  1  0  0  0  0
 13 16  1  0  0  0  0
 14 43  1  0  0  0  0
 14 44  1  0  0  0  0
 14 45  1  0  0  0  0
 15 46  1  0  0  0  0
 15 47  1  0  0  0  0
 15 48  1  0  0  0  0
 16 49  1  0  0  0  0
 16 50  1  0  0  0  0
 16 51  1  0  0  0  0
 17 52  1  0  0  0  0
 18 19  1  0  0  0  0
 18 53  1  0  0  0  0
 18 54  1  0  0  0  0
 19 20  1  0  0  0  0
 19 55  1  0  0  0  0
 19 56  1  0  0  0  0
 20 21  1  0  0  0  0
 20 57  1  0  0  0  0
 20 58  1  0  0  0  0
 21 59  1  0  0  0  0
 21 60  1  0  0  0  0
 22 23  1  0  0  0  0
 22 61  1  0  0  0  0
 23 24  2  0  0  0  0
 23 28  1  0  0  0  0
 24 25  1  0  0  0  0
 24 62  1  0  0  0  0
 25 26  2  0  0  0  0
 25 30  1  0  0  0  0
 26 27  1  0  0  0  0
 26 63  1  0  0  0  0
 27 28  2  0  0  0  0
 27 31  1  0  0  0  0
 28 29  1  0  0  0  0
 29 64  1  0  0  0  0
 30 32  1  0  0  0  0
 30 33  1  0  0  0  0
 30 34  1  0  0  0  0
 31 65  1  0  0  0  0
 31 66  1  0  0  0  0
 31 67  1  0  0  0  0
 32 68  1  0  0  0  0
 32 69  1  0  0  0  0
 32 70  1  0  0  0  0
 33 71  1  0  0  0  0
 33 72  1  0  0  0  0
 33 73  1  0  0  0  0
 34 74  1  0  0  0  0
 34 75  1  0  0  0  0
 34 76  1  0  0  0  0
M  END
$$$$
