Title Card Required
 OpenBabel03192317573D

 43 46  0  0  1  0  0  0  0  0999 V2000
    1.6586   -1.3234   -0.5160 O   0  0  0  0  0  0  0  0  0  0  0  0
    1.6222    0.0202   -0.5277 C   0  0  0  0  0  0  0  0  0  0  0  0
    2.7117    0.6565   -0.6720 N   0  0  0  0  0  0  0  0  0  0  0  0
    3.7816   -0.3371   -0.7448 C   0  0  2  0  0  0  0  0  0  0  0  0
    3.0204   -1.6894   -0.7446 C   0  0  0  0  0  0  0  0  0  0  0  0
    4.8052   -0.1497    0.4010 C   0  0  0  0  0  0  0  0  0  0  0  0
    4.1118   -0.2567    1.7616 C   0  0  0  0  0  0  0  0  0  0  0  0
    5.8953   -1.2182    0.2750 C   0  0  0  0  0  0  0  0  0  0  0  0
    5.4372    1.2380    0.2590 C   0  0  0  0  0  0  0  0  0  0  0  0
   -0.7582   -0.1230   -0.2482 N   0  0  0  0  0  0  0  0  0  0  0  0
    0.2933    0.6603   -0.3579 C   0  0  0  0  0  0  0  0  0  0  0  0
    0.2256    2.0720   -0.3212 C   0  0  0  0  0  0  0  0  0  0  0  0
   -1.0095    2.6542   -0.1583 C   0  0  0  0  0  0  0  0  0  0  0  0
   -2.1557    1.8389   -0.0361 C   0  0  0  0  0  0  0  0  0  0  0  0
   -3.4757    2.3800    0.1368 C   0  0  0  0  0  0  0  0  0  0  0  0
   -4.5528    1.5598    0.2463 C   0  0  0  0  0  0  0  0  0  0  0  0
   -4.4115    0.1279    0.1926 C   0  0  0  0  0  0  0  0  0  0  0  0
   -3.1263   -0.4424    0.0253 C   0  0  0  0  0  0  0  0  0  0  0  0
   -1.9717    0.4346   -0.0906 C   0  0  0  0  0  0  0  0  0  0  0  0
   -2.9856   -1.8445   -0.0277 C   0  0  0  0  0  0  0  0  0  0  0  0
   -4.0953   -2.6587    0.0815 C   0  0  0  0  0  0  0  0  0  0  0  0
   -5.3772   -2.0971    0.2470 C   0  0  0  0  0  0  0  0  0  0  0  0
   -5.5315   -0.7271    0.3023 C   0  0  0  0  0  0  0  0  0  0  0  0
    4.3300   -0.1991   -1.6918 H   0  0  0  0  0  0  0  0  0  0  0  0
    3.0843   -2.2145   -1.7080 H   0  0  0  0  0  0  0  0  0  0  0  0
    3.3346   -2.3765    0.0528 H   0  0  0  0  0  0  0  0  0  0  0  0
    3.6144   -1.2298    1.8965 H   0  0  0  0  0  0  0  0  0  0  0  0
    4.8472   -0.1446    2.5724 H   0  0  0  0  0  0  0  0  0  0  0  0
    3.3549    0.5328    1.8745 H   0  0  0  0  0  0  0  0  0  0  0  0
    6.3880   -1.1650   -0.7087 H   0  0  0  0  0  0  0  0  0  0  0  0
    6.6661   -1.0682    1.0458 H   0  0  0  0  0  0  0  0  0  0  0  0
    5.4950   -2.2354    0.4036 H   0  0  0  0  0  0  0  0  0  0  0  0
    5.9610    1.3328   -0.7050 H   0  0  0  0  0  0  0  0  0  0  0  0
    4.6658    2.0180    0.3057 H   0  0  0  0  0  0  0  0  0  0  0  0
    6.1692    1.4114    1.0624 H   0  0  0  0  0  0  0  0  0  0  0  0
    1.1445    2.6479   -0.4222 H   0  0  0  0  0  0  0  0  0  0  0  0
   -1.1177    3.7403   -0.1221 H   0  0  0  0  0  0  0  0  0  0  0  0
   -3.5926    3.4648    0.1769 H   0  0  0  0  0  0  0  0  0  0  0  0
   -5.5538    1.9763    0.3765 H   0  0  0  0  0  0  0  0  0  0  0  0
   -1.9827   -2.2524   -0.1564 H   0  0  0  0  0  0  0  0  0  0  0  0
   -3.9808   -3.7428    0.0395 H   0  0  0  0  0  0  0  0  0  0  0  0
   -6.2485   -2.7485    0.3303 H   0  0  0  0  0  0  0  0  0  0  0  0
   -6.5219   -0.2852    0.4305 H   0  0  0  0  0  0  0  0  0  0  0  0
  1  2  1  0  0  0  0
  1  5  1  0  0  0  0
  2  3  2  0  0  0  0
  2 11  1  0  0  0  0
  3  4  1  0  0  0  0
  4  5  1  0  0  0  0
  4  6  1  0  0  0  0
  4 24  1  6  0  0  0
  5 25  1  0  0  0  0
  5 26  1  0  0  0  0
  6  7  1  0  0  0  0
  6  8  1  0  0  0  0
  6  9  1  0  0  0  0
  7 27  1  0  0  0  0
  7 28  1  0  0  0  0
  7 29  1  0  0  0  0
  8 30  1  0  0  0  0
  8 31  1  0  0  0  0
  8 32  1  0  0  0  0
  9 33  1  0  0  0  0
  9 34  1  0  0  0  0
  9 35  1  0  0  0  0
 10 11  2  0  0  0  0
 10 19  1  0  0  0  0
 11 12  1  0  0  0  0
 12 13  2  0  0  0  0
 12 36  1  0  0  0  0
 13 14  1  0  0  0  0
 13 37  1  0  0  0  0
 14 15  2  0  0  0  0
 14 19  1  0  0  0  0
 15 16  1  0  0  0  0
 15 38  1  0  0  0  0
 16 17  2  0  0  0  0
 16 39  1  0  0  0  0
 17 18  1  0  0  0  0
 17 23  1  0  0  0  0
 18 19  2  0  0  0  0
 18 20  1  0  0  0  0
 20 21  2  0  0  0  0
 20 40  1  0  0  0  0
 21 22  1  0  0  0  0
 21 41  1  0  0  0  0
 22 23  2  0  0  0  0
 22 42  1  0  0  0  0
 23 43  1  0  0  0  0
M  END
$$$$
