Title Card Required
 OpenBabel03192317533D

 44 45  0  0  1  0  0  0  0  0999 V2000
    0.6039   -1.2253   -0.7106 C   0  0  0  0  0  0  0  0  0  0  0  0
    2.0904   -0.8790   -0.9739 C   0  0  2  0  0  0  0  0  0  0  0  0
    3.1016   -1.2433    0.1510 C   0  0  0  0  0  0  0  0  0  0  0  0
    3.1372   -0.1898    1.2653 C   0  0  0  0  0  0  0  0  0  0  0  0
    2.3265    0.4788   -1.4424 N   0  0  0  0  0  0  0  0  0  0  0  0
    2.7579   -2.6062    0.7577 C   0  0  0  0  0  0  0  0  0  0  0  0
    4.4936   -1.3141   -0.4902 C   0  0  0  0  0  0  0  0  0  0  0  0
   -0.2811   -0.4723    0.7548 P   0  0  0  0  0  0  0  0  0  0  0  0
   -0.2564    1.3219    0.2950 C   0  0  0  0  0  0  0  0  0  0  0  0
   -0.8007    1.7993   -0.9065 C   0  0  0  0  0  0  0  0  0  0  0  0
   -0.6996    3.1460   -1.2424 C   0  0  0  0  0  0  0  0  0  0  0  0
   -0.0560    4.0370   -0.3789 C   0  0  0  0  0  0  0  0  0  0  0  0
    0.4717    3.5776    0.8247 C   0  0  0  0  0  0  0  0  0  0  0  0
    0.3664    2.2255    1.1617 C   0  0  0  0  0  0  0  0  0  0  0  0
   -2.0302   -0.8664    0.3098 C   0  0  0  0  0  0  0  0  0  0  0  0
   -3.0484   -0.0664    0.8515 C   0  0  0  0  0  0  0  0  0  0  0  0
   -4.3882   -0.3568    0.6140 C   0  0  0  0  0  0  0  0  0  0  0  0
   -4.7397   -1.4623   -0.1631 C   0  0  0  0  0  0  0  0  0  0  0  0
   -3.7396   -2.2692   -0.6978 C   0  0  0  0  0  0  0  0  0  0  0  0
   -2.3945   -1.9743   -0.4644 C   0  0  0  0  0  0  0  0  0  0  0  0
    0.5136   -2.3143   -0.5747 H   0  0  0  0  0  0  0  0  0  0  0  0
    0.0346   -0.9750   -1.6226 H   0  0  0  0  0  0  0  0  0  0  0  0
    2.3637   -1.5404   -1.8160 H   0  0  0  0  0  0  0  0  0  0  0  0
    2.1767   -0.1178    1.7964 H   0  0  0  0  0  0  0  0  0  0  0  0
    3.9008   -0.4668    2.0085 H   0  0  0  0  0  0  0  0  0  0  0  0
    3.4061    0.8006    0.8688 H   0  0  0  0  0  0  0  0  0  0  0  0
    1.7940    0.6572   -2.2916 H   0  0  0  0  0  0  0  0  0  0  0  0
    2.0002    1.1627   -0.7623 H   0  0  0  0  0  0  0  0  0  0  0  0
    2.6589   -3.3766   -0.0244 H   0  0  0  0  0  0  0  0  0  0  0  0
    3.5583   -2.9262    1.4417 H   0  0  0  0  0  0  0  0  0  0  0  0
    1.8215   -2.5709    1.3351 H   0  0  0  0  0  0  0  0  0  0  0  0
    4.5475   -2.1381   -1.2189 H   0  0  0  0  0  0  0  0  0  0  0  0
    4.7147   -0.3748   -1.0144 H   0  0  0  0  0  0  0  0  0  0  0  0
    5.2646   -1.4882    0.2756 H   0  0  0  0  0  0  0  0  0  0  0  0
   -1.3119    1.1059   -1.5806 H   0  0  0  0  0  0  0  0  0  0  0  0
   -1.1234    3.5071   -2.1812 H   0  0  0  0  0  0  0  0  0  0  0  0
    0.0253    5.0922   -0.6447 H   0  0  0  0  0  0  0  0  0  0  0  0
    0.9641    4.2716    1.5077 H   0  0  0  0  0  0  0  0  0  0  0  0
    0.7796    1.8655    2.1070 H   0  0  0  0  0  0  0  0  0  0  0  0
   -2.7845    0.8033    1.4595 H   0  0  0  0  0  0  0  0  0  0  0  0
   -5.1634    0.2835    1.0385 H   0  0  0  0  0  0  0  0  0  0  0  0
   -5.7901   -1.6917   -0.3488 H   0  0  0  0  0  0  0  0  0  0  0  0
   -4.0030   -3.1368   -1.3054 H   0  0  0  0  0  0  0  0  0  0  0  0
   -1.6317   -2.6237   -0.8961 H   0  0  0  0  0  0  0  0  0  0  0  0
  1  2  1  0  0  0  0
  1  8  1  0  0  0  0
  1 21  1  0  0  0  0
  1 22  1  0  0  0  0
  2  3  1  0  0  0  0
  2  5  1  0  0  0  0
  2 23  1  6  0  0  0
  3  4  1  0  0  0  0
  3  6  1  0  0  0  0
  3  7  1  0  0  0  0
  4 24  1  0  0  0  0
  4 25  1  0  0  0  0
  4 26  1  0  0  0  0
  5 27  1  0  0  0  0
  5 28  1  0  0  0  0
  6 29  1  0  0  0  0
  6 30  1  0  0  0  0
  6 31  1  0  0  0  0
  7 32  1  0  0  0  0
  7 33  1  0  0  0  0
  7 34  1  0  0  0  0
  8  9  1  0  0  0  0
  8 15  1  0  0  0  0
  9 10  2  0  0  0  0
  9 14  1  0  0  0  0
 10 11  1  0  0  0  0
 10 35  1  0  0  0  0
 11 12  2  0  0  0  0
 11 36  1  0  0  0  0
 12 13  1  0  0  0  0
 12 37  1  0  0  0  0
 13 14  2  0  0  0  0
 13 38  1  0  0  0  0
 14 39  1  0  0  0  0
 15 16  2  0  0  0  0
 15 20  1  0  0  0  0
 16 17  1  0  0  0  0
 16 40  1  0  0  0  0
 17 18  2  0  0  0  0
 17 41  1  0  0  0  0
 18 19  1  0  0  0  0
 18 42  1  0  0  0  0
 19 20  2  0  0  0  0
 19 43  1  0  0  0  0
 20 44  1  0  0  0  0
M  END
$$$$
