Title Card Required
 OpenBabel03192317533D

 36 39  0  0  0  0  0  0  0  0999 V2000
    2.2168    2.1333    1.1060 C   0  0  0  0  0  0  0  0  0  0  0  0
    0.9216    1.5433    1.1635 C   0  0  0  0  0  0  0  0  0  0  0  0
    0.6747    0.3153    0.4799 C   0  0  0  0  0  0  0  0  0  0  0  0
    1.6935   -0.3071   -0.2272 C   0  0  0  0  0  0  0  0  0  0  0  0
    2.9866    0.2929   -0.2597 C   0  0  0  0  0  0  0  0  0  0  0  0
    3.2423    1.4779    0.3787 C   0  0  0  0  0  0  0  0  0  0  0  0
   -0.6747   -0.3152    0.4799 C   0  0  0  0  0  0  0  0  0  0  0  0
   -0.9216   -1.5432    1.1636 C   0  0  0  0  0  0  0  0  0  0  0  0
   -2.2168   -2.1332    1.1061 C   0  0  0  0  0  0  0  0  0  0  0  0
   -3.2423   -1.4779    0.3787 C   0  0  0  0  0  0  0  0  0  0  0  0
   -2.9866   -0.2929   -0.2598 C   0  0  0  0  0  0  0  0  0  0  0  0
   -1.6935    0.3070   -0.2274 C   0  0  0  0  0  0  0  0  0  0  0  0
    1.4131   -1.4624   -0.8524 O   0  0  0  0  0  0  0  0  0  0  0  0
   -1.4131    1.4622   -0.8528 O   0  0  0  0  0  0  0  0  0  0  0  0
    2.4633    3.3620    1.7783 C   0  0  0  0  0  0  0  0  0  0  0  0
    1.4667    3.9827    2.4873 C   0  0  0  0  0  0  0  0  0  0  0  0
    0.1792    3.3936    2.5562 C   0  0  0  0  0  0  0  0  0  0  0  0
   -0.0879    2.2095    1.9144 C   0  0  0  0  0  0  0  0  0  0  0  0
    0.0879   -2.2094    1.9144 C   0  0  0  0  0  0  0  0  0  0  0  0
   -0.1791   -3.3934    2.5563 C   0  0  0  0  0  0  0  0  0  0  0  0
   -1.4666   -3.9826    2.4875 C   0  0  0  0  0  0  0  0  0  0  0  0
   -2.4632   -3.3619    1.7784 C   0  0  0  0  0  0  0  0  0  0  0  0
    4.5330   -0.6703   -1.3263 I   0  0  0  0  0  0  0  0  0  0  0  0
   -4.5330    0.6702   -1.3262 I   0  0  0  0  0  0  0  0  0  0  0  0
    4.2355    1.9275    0.3360 H   0  0  0  0  0  0  0  0  0  0  0  0
   -4.2355   -1.9275    0.3361 H   0  0  0  0  0  0  0  0  0  0  0  0
    2.1940   -1.7988   -1.3129 H   0  0  0  0  0  0  0  0  0  0  0  0
   -2.1941    1.7988   -1.3130 H   0  0  0  0  0  0  0  0  0  0  0  0
    3.4619    3.7997    1.7183 H   0  0  0  0  0  0  0  0  0  0  0  0
    1.6611    4.9254    3.0004 H   0  0  0  0  0  0  0  0  0  0  0  0
   -0.6085    3.8877    3.1272 H   0  0  0  0  0  0  0  0  0  0  0  0
   -1.0806    1.7624    1.9771 H   0  0  0  0  0  0  0  0  0  0  0  0
    1.0807   -1.7622    1.9770 H   0  0  0  0  0  0  0  0  0  0  0  0
    0.6087   -3.8876    3.1272 H   0  0  0  0  0  0  0  0  0  0  0  0
   -1.6610   -4.9252    3.0006 H   0  0  0  0  0  0  0  0  0  0  0  0
   -3.4618   -3.7997    1.7184 H   0  0  0  0  0  0  0  0  0  0  0  0
  1  2  1  0  0  0  0
  1  6  2  0  0  0  0
  1 15  1  0  0  0  0
  2  3  2  0  0  0  0
  2 18  1  0  0  0  0
  3  4  1  0  0  0  0
  3  7  1  0  0  0  0
  4  5  2  0  0  0  0
  4 13  1  0  0  0  0
  5  6  1  0  0  0  0
  5 23  1  0  0  0  0
  6 25  1  0  0  0  0
  7  8  2  0  0  0  0
  7 12  1  0  0  0  0
  8  9  1  0  0  0  0
  8 19  1  0  0  0  0
  9 10  2  0  0  0  0
  9 22  1  0  0  0  0
 10 11  1  0  0  0  0
 10 26  1  0  0  0  0
 11 12  2  0  0  0  0
 11 24  1  0  0  0  0
 12 14  1  0  0  0  0
 13 27  1  0  0  0  0
 14 28  1  0  0  0  0
 15 16  2  0  0  0  0
 15 29  1  0  0  0  0
 16 17  1  0  0  0  0
 16 30  1  0  0  0  0
 17 18  2  0  0  0  0
 17 31  1  0  0  0  0
 18 32  1  0  0  0  0
 19 20  2  0  0  0  0
 19 33  1  0  0  0  0
 20 21  1  0  0  0  0
 20 34  1  0  0  0  0
 21 22  2  0  0  0  0
 21 35  1  0  0  0  0
 22 36  1  0  0  0  0
M  END
$$$$
