Title Card Required
 OpenBabel03192317463D

 32 33  0  0  1  0  0  0  0  0999 V2000
    0.4076   -0.1123    0.7060 C   0  0  2  0  0  0  0  0  0  0  0  0
   -0.4051    0.0535   -0.6072 C   0  0  1  0  0  0  0  0  0  0  0  0
   -0.1023   -1.0743   -1.4772 N   0  0  0  0  0  0  0  0  0  0  0  0
   -1.8913    0.1432   -0.3312 C   0  0  0  0  0  0  0  0  0  0  0  0
   -2.6940   -0.9998   -0.2651 C   0  0  0  0  0  0  0  0  0  0  0  0
   -4.0545   -0.8917    0.0165 C   0  0  0  0  0  0  0  0  0  0  0  0
   -4.6302    0.3583    0.2424 C   0  0  0  0  0  0  0  0  0  0  0  0
   -3.8367    1.5029    0.1815 C   0  0  0  0  0  0  0  0  0  0  0  0
   -2.4774    1.3921   -0.1061 C   0  0  0  0  0  0  0  0  0  0  0  0
    1.8930    0.0692    0.4042 C   0  0  0  0  0  0  0  0  0  0  0  0
    2.4177    1.3562    0.2305 C   0  0  0  0  0  0  0  0  0  0  0  0
    3.7593    1.5456   -0.0903 C   0  0  0  0  0  0  0  0  0  0  0  0
    4.6033    0.4446   -0.2450 C   0  0  0  0  0  0  0  0  0  0  0  0
    4.0944   -0.8404   -0.0718 C   0  0  0  0  0  0  0  0  0  0  0  0
    2.7495   -1.0248    0.2538 C   0  0  0  0  0  0  0  0  0  0  0  0
    0.0348   -1.3601    1.3284 N   0  0  0  0  0  0  0  0  0  0  0  0
    0.1029    0.7210    1.3622 H   0  0  0  0  0  0  0  0  0  0  0  0
   -0.0968    1.0263   -1.0376 H   0  0  0  0  0  0  0  0  0  0  0  0
   -0.6845   -1.0431   -2.3115 H   0  0  0  0  0  0  0  0  0  0  0  0
    0.8699   -1.0280   -1.7796 H   0  0  0  0  0  0  0  0  0  0  0  0
   -2.2377   -1.9752   -0.4365 H   0  0  0  0  0  0  0  0  0  0  0  0
   -4.6700   -1.7918    0.0631 H   0  0  0  0  0  0  0  0  0  0  0  0
   -5.6958    0.4404    0.4623 H   0  0  0  0  0  0  0  0  0  0  0  0
   -4.2790    2.4861    0.3508 H   0  0  0  0  0  0  0  0  0  0  0  0
   -1.8590    2.2923   -0.1616 H   0  0  0  0  0  0  0  0  0  0  0  0
    1.7610    2.2216    0.3576 H   0  0  0  0  0  0  0  0  0  0  0  0
    4.1519    2.5563   -0.2143 H   0  0  0  0  0  0  0  0  0  0  0  0
    5.6556    0.5907   -0.4932 H   0  0  0  0  0  0  0  0  0  0  0  0
    4.7486   -1.7067   -0.1847 H   0  0  0  0  0  0  0  0  0  0  0  0
    2.3593   -2.0336    0.4011 H   0  0  0  0  0  0  0  0  0  0  0  0
    0.6419   -1.5843    2.1118 H   0  0  0  0  0  0  0  0  0  0  0  0
    0.0894   -2.1104    0.6415 H   0  0  0  0  0  0  0  0  0  0  0  0
  1  2  1  0  0  0  0
  1 10  1  0  0  0  0
  1 16  1  0  0  0  0
  1 17  1  1  0  0  0
  2  3  1  0  0  0  0
  2  4  1  0  0  0  0
  2 18  1  6  0  0  0
  3 19  1  0  0  0  0
  3 20  1  0  0  0  0
  4  5  2  0  0  0  0
  4  9  1  0  0  0  0
  5  6  1  0  0  0  0
  5 21  1  0  0  0  0
  6  7  2  0  0  0  0
  6 22  1  0  0  0  0
  7  8  1  0  0  0  0
  7 23  1  0  0  0  0
  8  9  2  0  0  0  0
  8 24  1  0  0  0  0
  9 25  1  0  0  0  0
 10 11  2  0  0  0  0
 10 15  1  0  0  0  0
 11 12  1  0  0  0  0
 11 26  1  0  0  0  0
 12 13  2  0  0  0  0
 12 27  1  0  0  0  0
 13 14  1  0  0  0  0
 13 28  1  0  0  0  0
 14 15  2  0  0  0  0
 14 29  1  0  0  0  0
 15 30  1  0  0  0  0
 16 31  1  0  0  0  0
 16 32  1  0  0  0  0
M  END
$$$$
