Title Card Required
 OpenBabel03192317463D

106115  0  0  0  0  0  0  0  0999 V2000
   -3.7871    1.6574    2.9990 C   0  0  0  0  0  0  0  0  0  0  0  0
   -3.6364    2.6129    1.9665 C   0  0  0  0  0  0  0  0  0  0  0  0
   -2.4688    2.6893    1.2472 C   0  0  0  0  0  0  0  0  0  0  0  0
   -1.3767    1.8161    1.5226 C   0  0  0  0  0  0  0  0  0  0  0  0
   -1.5216    0.8815    2.5866 C   0  0  0  0  0  0  0  0  0  0  0  0
   -2.7456    0.8176    3.3050 C   0  0  0  0  0  0  0  0  0  0  0  0
   -0.1277    1.9245    0.8143 C   0  0  0  0  0  0  0  0  0  0  0  0
    0.9445    1.1509    1.2277 C   0  0  0  0  0  0  0  0  0  0  0  0
    0.7831    0.2128    2.2892 C   0  0  0  0  0  0  0  0  0  0  0  0
   -0.4103    0.0705    2.9384 C   0  0  0  0  0  0  0  0  0  0  0  0
   -0.0407    2.9942   -0.2225 C   0  0  0  0  0  0  0  0  0  0  0  0
    0.2959    4.3262    0.1863 C   0  0  0  0  0  0  0  0  0  0  0  0
    0.3121    5.3767   -0.7769 C   0  0  0  0  0  0  0  0  0  0  0  0
   -0.0185    5.0815   -2.1262 C   0  0  0  0  0  0  0  0  0  0  0  0
   -0.3395    3.8028   -2.4957 C   0  0  0  0  0  0  0  0  0  0  0  0
   -0.3623    2.7482   -1.5447 C   0  0  0  0  0  0  0  0  0  0  0  0
    0.6199    4.6396    1.5373 C   0  0  0  0  0  0  0  0  0  0  0  0
    0.9512    5.9217    1.9028 C   0  0  0  0  0  0  0  0  0  0  0  0
    0.9735    6.9617    0.9416 C   0  0  0  0  0  0  0  0  0  0  0  0
    0.6587    6.6927   -0.3670 C   0  0  0  0  0  0  0  0  0  0  0  0
    2.2815    1.2707    0.7623 N   0  0  0  0  0  0  0  0  0  0  0  0
   -0.5377    1.4263   -2.0453 N   0  0  0  0  0  0  0  0  0  0  0  0
    2.7859    1.3082   -0.5073 C   0  0  0  0  0  0  0  0  0  0  0  0
   -1.5431    0.5149   -1.9416 C   0  0  0  0  0  0  0  0  0  0  0  0
    2.1357    1.4974   -1.5121 O   0  0  0  0  0  0  0  0  0  0  0  0
    4.2821    1.1219   -0.6078 C   0  0  0  0  0  0  0  0  0  0  0  0
   -1.3623   -0.6419   -2.2798 O   0  0  0  0  0  0  0  0  0  0  0  0
   -2.8981    0.9402   -1.4540 C   0  0  0  0  0  0  0  0  0  0  0  0
    4.9912    0.0311   -0.0603 C   0  0  0  0  0  0  0  0  0  0  0  0
    6.3695   -0.0433   -0.3129 C   0  0  0  0  0  0  0  0  0  0  0  0
    7.0234    0.9233   -1.0736 C   0  0  0  0  0  0  0  0  0  0  0  0
    6.3081    1.9815   -1.6285 C   0  0  0  0  0  0  0  0  0  0  0  0
    4.9379    2.0625   -1.4083 C   0  0  0  0  0  0  0  0  0  0  0  0
   -3.4444    2.1527   -1.8807 C   0  0  0  0  0  0  0  0  0  0  0  0
   -4.7377    2.5169   -1.5131 C   0  0  0  0  0  0  0  0  0  0  0  0
   -5.4752    1.6692   -0.6930 C   0  0  0  0  0  0  0  0  0  0  0  0
   -4.9336    0.4564   -0.2640 C   0  0  0  0  0  0  0  0  0  0  0  0
   -3.6533    0.0500   -0.6562 C   0  0  0  0  0  0  0  0  0  0  0  0
    4.1977   -1.2306    1.0531 P   0  0  0  0  0  0  0  0  0  0  0  0
    2.7747   -1.8454    0.0616 C   0  0  0  0  0  0  0  0  0  0  0  0
    2.5869   -1.6106   -1.3069 C   0  0  0  0  0  0  0  0  0  0  0  0
    1.4252   -2.0486   -1.9405 C   0  0  0  0  0  0  0  0  0  0  0  0
    0.4511   -2.7460   -1.2273 C   0  0  0  0  0  0  0  0  0  0  0  0
    0.6487   -3.0192    0.1243 C   0  0  0  0  0  0  0  0  0  0  0  0
    1.7991   -2.5648    0.7655 C   0  0  0  0  0  0  0  0  0  0  0  0
    5.3919   -2.6281    0.9220 C   0  0  0  0  0  0  0  0  0  0  0  0
    6.3052   -2.8229    1.9647 C   0  0  0  0  0  0  0  0  0  0  0  0
    7.2412   -3.8563    1.9018 C   0  0  0  0  0  0  0  0  0  0  0  0
    7.2596   -4.7121    0.8019 C   0  0  0  0  0  0  0  0  0  0  0  0
    6.3429   -4.5324   -0.2351 C   0  0  0  0  0  0  0  0  0  0  0  0
    5.4140   -3.4962   -0.1765 C   0  0  0  0  0  0  0  0  0  0  0  0
   -2.8932   -1.5579   -0.0909 P   0  0  0  0  0  0  0  0  0  0  0  0
   -3.3390   -2.7106   -1.4672 C   0  0  0  0  0  0  0  0  0  0  0  0
   -3.8177   -2.3044   -2.7156 C   0  0  0  0  0  0  0  0  0  0  0  0
   -4.0911   -3.2466   -3.7074 C   0  0  0  0  0  0  0  0  0  0  0  0
   -3.8840   -4.6042   -3.4685 C   0  0  0  0  0  0  0  0  0  0  0  0
   -3.4009   -5.0184   -2.2272 C   0  0  0  0  0  0  0  0  0  0  0  0
   -3.1299   -4.0772   -1.2365 C   0  0  0  0  0  0  0  0  0  0  0  0
   -4.1320   -2.1714    1.1459 C   0  0  0  0  0  0  0  0  0  0  0  0
   -5.4155   -2.6340    0.8173 C   0  0  0  0  0  0  0  0  0  0  0  0
   -6.2703   -3.1165    1.8051 C   0  0  0  0  0  0  0  0  0  0  0  0
   -5.8508   -3.1586    3.1369 C   0  0  0  0  0  0  0  0  0  0  0  0
   -4.5698   -2.7280    3.4729 C   0  0  0  0  0  0  0  0  0  0  0  0
   -3.7162   -2.2444    2.4791 C   0  0  0  0  0  0  0  0  0  0  0  0
   -4.7223    1.5985    3.5577 H   0  0  0  0  0  0  0  0  0  0  0  0
   -4.4565    3.2935    1.7336 H   0  0  0  0  0  0  0  0  0  0  0  0
   -2.3729    3.4296    0.4534 H   0  0  0  0  0  0  0  0  0  0  0  0
   -2.8399    0.0928    4.1160 H   0  0  0  0  0  0  0  0  0  0  0  0
    1.6490   -0.3876    2.5761 H   0  0  0  0  0  0  0  0  0  0  0  0
   -0.5114   -0.6499    3.7531 H   0  0  0  0  0  0  0  0  0  0  0  0
   -0.0004    5.8860   -2.8638 H   0  0  0  0  0  0  0  0  0  0  0  0
   -0.5698    3.5565   -3.5336 H   0  0  0  0  0  0  0  0  0  0  0  0
    0.5980    3.8450    2.2844 H   0  0  0  0  0  0  0  0  0  0  0  0
    1.1958    6.1425    2.9429 H   0  0  0  0  0  0  0  0  0  0  0  0
    1.2385    7.9754    1.2455 H   0  0  0  0  0  0  0  0  0  0  0  0
    0.6698    7.4869   -1.1165 H   0  0  0  0  0  0  0  0  0  0  0  0
    2.9704    1.0601    1.4786 H   0  0  0  0  0  0  0  0  0  0  0  0
    0.3532    0.9931   -2.2949 H   0  0  0  0  0  0  0  0  0  0  0  0
    6.9456   -0.8810    0.0824 H   0  0  0  0  0  0  0  0  0  0  0  0
    8.0974    0.8349   -1.2449 H   0  0  0  0  0  0  0  0  0  0  0  0
    6.8114    2.7323   -2.2389 H   0  0  0  0  0  0  0  0  0  0  0  0
    4.3441    2.8596   -1.8586 H   0  0  0  0  0  0  0  0  0  0  0  0
   -2.8545    2.8109   -2.5200 H   0  0  0  0  0  0  0  0  0  0  0  0
   -5.1618    3.4583   -1.8656 H   0  0  0  0  0  0  0  0  0  0  0  0
   -6.4846    1.9462   -0.3831 H   0  0  0  0  0  0  0  0  0  0  0  0
   -5.5288   -0.1818    0.3890 H   0  0  0  0  0  0  0  0  0  0  0  0
    3.3332   -1.0541   -1.8779 H   0  0  0  0  0  0  0  0  0  0  0  0
    1.2591   -1.8222   -2.9944 H   0  0  0  0  0  0  0  0  0  0  0  0
   -0.4752   -3.0408   -1.7232 H   0  0  0  0  0  0  0  0  0  0  0  0
   -0.1159   -3.5540    0.6910 H   0  0  0  0  0  0  0  0  0  0  0  0
    1.9357   -2.7572    1.8335 H   0  0  0  0  0  0  0  0  0  0  0  0
    6.2827   -2.1591    2.8327 H   0  0  0  0  0  0  0  0  0  0  0  0
    7.9517   -3.9976    2.7178 H   0  0  0  0  0  0  0  0  0  0  0  0
    7.9857   -5.5253    0.7538 H   0  0  0  0  0  0  0  0  0  0  0  0
    6.3500   -5.2044   -1.0947 H   0  0  0  0  0  0  0  0  0  0  0  0
    4.6947   -3.3609   -0.9869 H   0  0  0  0  0  0  0  0  0  0  0  0
   -3.9648   -1.2426   -2.9201 H   0  0  0  0  0  0  0  0  0  0  0  0
   -4.4638   -2.9132   -4.6776 H   0  0  0  0  0  0  0  0  0  0  0  0
   -4.0934   -5.3381   -4.2484 H   0  0  0  0  0  0  0  0  0  0  0  0
   -3.2319   -6.0783   -2.0294 H   0  0  0  0  0  0  0  0  0  0  0  0
   -2.7571   -4.4114   -0.2635 H   0  0  0  0  0  0  0  0  0  0  0  0
   -5.7413   -2.6213   -0.2262 H   0  0  0  0  0  0  0  0  0  0  0  0
   -7.2671   -3.4694    1.5349 H   0  0  0  0  0  0  0  0  0  0  0  0
   -6.5208   -3.5419    3.9085 H   0  0  0  0  0  0  0  0  0  0  0  0
   -4.2281   -2.7795    4.5085 H   0  0  0  0  0  0  0  0  0  0  0  0
   -2.7011   -1.9285    2.7302 H   0  0  0  0  0  0  0  0  0  0  0  0
  1  2  2  0  0  0  0
  1  6  1  0  0  0  0
  1 65  1  0  0  0  0
  2  3  1  0  0  0  0
  2 66  1  0  0  0  0
  3  4  2  0  0  0  0
  3 67  1  0  0  0  0
  4  5  1  0  0  0  0
  4  7  1  0  0  0  0
  5  6  2  0  0  0  0
  5 10  1  0  0  0  0
  6 68  1  0  0  0  0
  7  8  2  0  0  0  0
  7 11  1  0  0  0  0
  8  9  1  0  0  0  0
  8 21  1  0  0  0  0
  9 10  2  0  0  0  0
  9 69  1  0  0  0  0
 10 70  1  0  0  0  0
 11 12  2  0  0  0  0
 11 16  1  0  0  0  0
 12 13  1  0  0  0  0
 12 17  1  0  0  0  0
 13 14  2  0  0  0  0
 13 20  1  0  0  0  0
 14 15  1  0  0  0  0
 14 71  1  0  0  0  0
 15 16  2  0  0  0  0
 15 72  1  0  0  0  0
 16 22  1  0  0  0  0
 17 18  2  0  0  0  0
 17 73  1  0  0  0  0
 18 19  1  0  0  0  0
 18 74  1  0  0  0  0
 19 20  2  0  0  0  0
 19 75  1  0  0  0  0
 20 76  1  0  0  0  0
 21 23  1  0  0  0  0
 21 77  1  0  0  0  0
 22 24  1  0  0  0  0
 22 78  1  0  0  0  0
 23 25  2  0  0  0  0
 23 26  1  0  0  0  0
 24 27  2  0  0  0  0
 24 28  1  0  0  0  0
 26 29  2  0  0  0  0
 26 33  1  0  0  0  0
 28 34  2  0  0  0  0
 28 38  1  0  0  0  0
 29 30  1  0  0  0  0
 29 39  1  0  0  0  0
 30 31  2  0  0  0  0
 30 79  1  0  0  0  0
 31 32  1  0  0  0  0
 31 80  1  0  0  0  0
 32 33  2  0  0  0  0
 32 81  1  0  0  0  0
 33 82  1  0  0  0  0
 34 35  1  0  0  0  0
 34 83  1  0  0  0  0
 35 36  2  0  0  0  0
 35 84  1  0  0  0  0
 36 37  1  0  0  0  0
 36 85  1  0  0  0  0
 37 38  2  0  0  0  0
 37 86  1  0  0  0  0
 38 52  1  0  0  0  0
 39 40  1  0  0  0  0
 39 46  1  0  0  0  0
 40 41  2  0  0  0  0
 40 45  1  0  0  0  0
 41 42  1  0  0  0  0
 41 87  1  0  0  0  0
 42 43  2  0  0  0  0
 42 88  1  0  0  0  0
 43 44  1  0  0  0  0
 43 89  1  0  0  0  0
 44 45  2  0  0  0  0
 44 90  1  0  0  0  0
 45 91  1  0  0  0  0
 46 47  2  0  0  0  0
 46 51  1  0  0  0  0
 47 48  1  0  0  0  0
 47 92  1  0  0  0  0
 48 49  2  0  0  0  0
 48 93  1  0  0  0  0
 49 50  1  0  0  0  0
 49 94  1  0  0  0  0
 50 51  2  0  0  0  0
 50 95  1  0  0  0  0
 51 96  1  0  0  0  0
 52 53  1  0  0  0  0
 52 59  1  0  0  0  0
 53 54  2  0  0  0  0
 53 58  1  0  0  0  0
 54 55  1  0  0  0  0
 54 97  1  0  0  0  0
 55 56  2  0  0  0  0
 55 98  1  0  0  0  0
 56 57  1  0  0  0  0
 56 99  1  0  0  0  0
 57 58  2  0  0  0  0
 57100  1  0  0  0  0
 58101  1  0  0  0  0
 59 60  2  0  0  0  0
 59 64  1  0  0  0  0
 60 61  1  0  0  0  0
 60102  1  0  0  0  0
 61 62  2  0  0  0  0
 61103  1  0  0  0  0
 62 63  1  0  0  0  0
 62104  1  0  0  0  0
 63 64  2  0  0  0  0
 63105  1  0  0  0  0
 64106  1  0  0  0  0
M  END
$$$$
