Title Card Required
 OpenBabel03192317423D

 75 81  0  0  1  0  0  0  0  0999 V2000
   -1.3410    1.1621    0.0418 O   0  0  0  0  0  0  0  0  0  0  0  0
    0.0320    1.7120   -0.7371 P   0  0  2  0  0  0  0  0  0  0  0  0
    1.1949    1.0699    0.2770 O   0  0  0  0  0  0  0  0  0  0  0  0
    1.7610   -0.2120    0.0121 C   0  0  0  0  0  0  0  0  0  0  0  0
    0.6217   -1.1635   -0.4649 C   0  0  2  0  0  0  0  0  0  0  0  0
   -0.6789   -1.1051    0.3735 C   0  0  1  0  0  0  0  0  0  0  0  0
   -1.8071   -0.1709   -0.1421 C   0  0  0  0  0  0  0  0  0  0  0  0
   -1.1063   -2.4446    0.3807 O   0  0  0  0  0  0  0  0  0  0  0  0
    0.0408   -3.2660    0.3446 C   0  0  0  0  0  0  0  0  0  0  0  0
    0.9961   -2.5192   -0.4116 O   0  0  0  0  0  0  0  0  0  0  0  0
   -3.0069   -0.3322    0.7960 C   0  0  0  0  0  0  0  0  0  0  0  0
   -3.1511    0.5260    1.8895 C   0  0  0  0  0  0  0  0  0  0  0  0
   -4.2162    0.3659    2.7753 C   0  0  0  0  0  0  0  0  0  0  0  0
   -5.1426   -0.6558    2.5810 C   0  0  0  0  0  0  0  0  0  0  0  0
   -4.9978   -1.5187    1.4947 C   0  0  0  0  0  0  0  0  0  0  0  0
   -3.9373   -1.3584    0.6057 C   0  0  0  0  0  0  0  0  0  0  0  0
   -2.2337   -0.3680   -1.6005 C   0  0  0  0  0  0  0  0  0  0  0  0
   -2.0345   -1.5466   -2.3244 C   0  0  0  0  0  0  0  0  0  0  0  0
   -2.4784   -1.6515   -3.6443 C   0  0  0  0  0  0  0  0  0  0  0  0
   -3.1320   -0.5860   -4.2556 C   0  0  0  0  0  0  0  0  0  0  0  0
   -3.3437    0.5908   -3.5367 C   0  0  0  0  0  0  0  0  0  0  0  0
   -2.8992    0.6966   -2.2228 C   0  0  0  0  0  0  0  0  0  0  0  0
    0.0000    3.3674    0.0377 C   0  0  0  0  0  0  0  0  0  0  0  0
    1.1973    4.0840    0.1460 C   0  0  0  0  0  0  0  0  0  0  0  0
    1.1986    5.3683    0.6851 C   0  0  0  0  0  0  0  0  0  0  0  0
    0.0028    5.9492    1.1088 C   0  0  0  0  0  0  0  0  0  0  0  0
   -1.1932    5.2427    0.9922 C   0  0  0  0  0  0  0  0  0  0  0  0
   -1.1978    3.9547    0.4575 C   0  0  0  0  0  0  0  0  0  0  0  0
    2.3621   -0.7008    1.3269 C   0  0  0  0  0  0  0  0  0  0  0  0
    1.9435   -0.1572    2.5449 C   0  0  0  0  0  0  0  0  0  0  0  0
    2.4402   -0.6612    3.7481 C   0  0  0  0  0  0  0  0  0  0  0  0
    3.3657   -1.7026    3.7447 C   0  0  0  0  0  0  0  0  0  0  0  0
    3.8034   -2.2312    2.5299 C   0  0  0  0  0  0  0  0  0  0  0  0
    3.3056   -1.7336    1.3285 C   0  0  0  0  0  0  0  0  0  0  0  0
    2.8465   -0.0732   -1.0551 C   0  0  0  0  0  0  0  0  0  0  0  0
    3.7539    0.9866   -0.9337 C   0  0  0  0  0  0  0  0  0  0  0  0
    4.7710    1.1591   -1.8671 C   0  0  0  0  0  0  0  0  0  0  0  0
    4.8996    0.2670   -2.9337 C   0  0  0  0  0  0  0  0  0  0  0  0
    4.0083   -0.7948   -3.0534 C   0  0  0  0  0  0  0  0  0  0  0  0
    2.9835   -0.9663   -2.1196 C   0  0  0  0  0  0  0  0  0  0  0  0
    0.5479   -3.5441    1.7524 C   0  0  0  0  0  0  0  0  0  0  0  0
   -0.2865   -4.5402   -0.4066 C   0  0  0  0  0  0  0  0  0  0  0  0
    0.4003   -0.8960   -1.5131 H   0  0  0  0  0  0  0  0  0  0  0  0
   -0.4536   -0.7573    1.3982 H   0  0  0  0  0  0  0  0  0  0  0  0
   -2.4244    1.3246    2.0379 H   0  0  0  0  0  0  0  0  0  0  0  0
   -4.3203    1.0471    3.6214 H   0  0  0  0  0  0  0  0  0  0  0  0
   -5.9769   -0.7798    3.2733 H   0  0  0  0  0  0  0  0  0  0  0  0
   -5.7197   -2.3209    1.3344 H   0  0  0  0  0  0  0  0  0  0  0  0
   -3.8302   -2.0334   -0.2445 H   0  0  0  0  0  0  0  0  0  0  0  0
   -1.5384   -2.3933   -1.8555 H   0  0  0  0  0  0  0  0  0  0  0  0
   -2.3082   -2.5786   -4.1942 H   0  0  0  0  0  0  0  0  0  0  0  0
   -3.4771   -0.6703   -5.2871 H   0  0  0  0  0  0  0  0  0  0  0  0
   -3.8577    1.4325   -4.0034 H   0  0  0  0  0  0  0  0  0  0  0  0
   -3.0665    1.6182   -1.6626 H   0  0  0  0  0  0  0  0  0  0  0  0
    2.1337    3.6288   -0.1854 H   0  0  0  0  0  0  0  0  0  0  0  0
    2.1368    5.9179    0.7762 H   0  0  0  0  0  0  0  0  0  0  0  0
    0.0042    6.9557    1.5301 H   0  0  0  0  0  0  0  0  0  0  0  0
   -2.1294    5.6935    1.3255 H   0  0  0  0  0  0  0  0  0  0  0  0
   -2.1303    3.3930    0.3809 H   0  0  0  0  0  0  0  0  0  0  0  0
    1.2315    0.6681    2.5408 H   0  0  0  0  0  0  0  0  0  0  0  0
    2.1024   -0.2318    4.6928 H   0  0  0  0  0  0  0  0  0  0  0  0
    3.7542   -2.0951    4.6859 H   0  0  0  0  0  0  0  0  0  0  0  0
    4.5369   -3.0392    2.5174 H   0  0  0  0  0  0  0  0  0  0  0  0
    3.6448   -2.1525    0.3801 H   0  0  0  0  0  0  0  0  0  0  0  0
    3.6542    1.6705   -0.0881 H   0  0  0  0  0  0  0  0  0  0  0  0
    5.4707    1.9897   -1.7617 H   0  0  0  0  0  0  0  0  0  0  0  0
    5.6960    0.4002   -3.6675 H   0  0  0  0  0  0  0  0  0  0  0  0
    4.1050   -1.4998   -3.8804 H   0  0  0  0  0  0  0  0  0  0  0  0
    2.3052   -1.8149   -2.2177 H   0  0  0  0  0  0  0  0  0  0  0  0
   -0.1976   -4.1454    2.2903 H   0  0  0  0  0  0  0  0  0  0  0  0
    1.4973   -4.0937    1.7080 H   0  0  0  0  0  0  0  0  0  0  0  0
    0.7201   -2.6121    2.3076 H   0  0  0  0  0  0  0  0  0  0  0  0
   -0.5894   -4.3036   -1.4344 H   0  0  0  0  0  0  0  0  0  0  0  0
    0.5994   -5.1876   -0.4394 H   0  0  0  0  0  0  0  0  0  0  0  0
   -1.1019   -5.0719    0.1006 H   0  0  0  0  0  0  0  0  0  0  0  0
  1  2  1  0  0  0  0
  1  7  1  0  0  0  0
  2  3  1  0  0  0  0
  2 23  1  1  0  0  0
  3  4  1  0  0  0  0
  4  5  1  0  0  0  0
  4 29  1  0  0  0  0
  4 35  1  0  0  0  0
  5  6  1  0  0  0  0
  5 10  1  0  0  0  0
  5 43  1  6  0  0  0
  6  7  1  0  0  0  0
  6  8  1  0  0  0  0
  6 44  1  1  0  0  0
  7 11  1  0  0  0  0
  7 17  1  0  0  0  0
  8  9  1  0  0  0  0
  9 10  1  0  0  0  0
  9 41  1  0  0  0  0
  9 42  1  0  0  0  0
 11 12  2  0  0  0  0
 11 16  1  0  0  0  0
 12 13  1  0  0  0  0
 12 45  1  0  0  0  0
 13 14  2  0  0  0  0
 13 46  1  0  0  0  0
 14 15  1  0  0  0  0
 14 47  1  0  0  0  0
 15 16  2  0  0  0  0
 15 48  1  0  0  0  0
 16 49  1  0  0  0  0
 17 18  2  0  0  0  0
 17 22  1  0  0  0  0
 18 19  1  0  0  0  0
 18 50  1  0  0  0  0
 19 20  2  0  0  0  0
 19 51  1  0  0  0  0
 20 21  1  0  0  0  0
 20 52  1  0  0  0  0
 21 22  2  0  0  0  0
 21 53  1  0  0  0  0
 22 54  1  0  0  0  0
 23 24  2  0  0  0  0
 23 28  1  0  0  0  0
 24 25  1  0  0  0  0
 24 55  1  0  0  0  0
 25 26  2  0  0  0  0
 25 56  1  0  0  0  0
 26 27  1  0  0  0  0
 26 57  1  0  0  0  0
 27 28  2  0  0  0  0
 27 58  1  0  0  0  0
 28 59  1  0  0  0  0
 29 30  2  0  0  0  0
 29 34  1  0  0  0  0
 30 31  1  0  0  0  0
 30 60  1  0  0  0  0
 31 32  2  0  0  0  0
 31 61  1  0  0  0  0
 32 33  1  0  0  0  0
 32 62  1  0  0  0  0
 33 34  2  0  0  0  0
 33 63  1  0  0  0  0
 34 64  1  0  0  0  0
 35 36  2  0  0  0  0
 35 40  1  0  0  0  0
 36 37  1  0  0  0  0
 36 65  1  0  0  0  0
 37 38  2  0  0  0  0
 37 66  1  0  0  0  0
 38 39  1  0  0  0  0
 38 67  1  0  0  0  0
 39 40  2  0  0  0  0
 39 68  1  0  0  0  0
 40 69  1  0  0  0  0
 41 70  1  0  0  0  0
 41 71  1  0  0  0  0
 41 72  1  0  0  0  0
 42 73  1  0  0  0  0
 42 74  1  0  0  0  0
 42 75  1  0  0  0  0
M  END
$$$$
