Title Card Required
 OpenBabel03192317543D

 17 16  0  0  1  0  0  0  0  0999 V2000
    2.4143    0.0910    0.1810 N   0  0  0  0  0  0  0  0  0  0  0  0
    0.0195    1.3033   -0.2883 O   0  0  0  0  0  0  0  0  0  0  0  0
   -2.5323    0.0524    0.2006 C   0  0  0  0  0  0  0  0  0  0  0  0
   -1.2729   -0.6922   -0.2244 C   0  0  0  0  0  0  0  0  0  0  0  0
   -0.0080    0.0065    0.2448 C   0  0  1  0  0  0  0  0  0  0  0  0
    1.2623   -0.7300   -0.1737 C   0  0  0  0  0  0  0  0  0  0  0  0
    2.6198    0.0140    1.1756 H   0  0  0  0  0  0  0  0  0  0  0  0
    3.2504   -0.1978   -0.3192 H   0  0  0  0  0  0  0  0  0  0  0  0
    0.9493    1.5750   -0.2295 H   0  0  0  0  0  0  0  0  0  0  0  0
   -2.4991    1.0830   -0.1764 H   0  0  0  0  0  0  0  0  0  0  0  0
   -3.4386   -0.4343   -0.1849 H   0  0  0  0  0  0  0  0  0  0  0  0
   -2.6106    0.0967    1.2975 H   0  0  0  0  0  0  0  0  0  0  0  0
   -1.2306   -0.7610   -1.3240 H   0  0  0  0  0  0  0  0  0  0  0  0
   -1.2784   -1.7225    0.1675 H   0  0  0  0  0  0  0  0  0  0  0  0
   -0.0258    0.0486    1.3581 H   0  0  0  0  0  0  0  0  0  0  0  0
    1.2426   -0.8373   -1.2698 H   0  0  0  0  0  0  0  0  0  0  0  0
    1.2710   -1.7475    0.2607 H   0  0  0  0  0  0  0  0  0  0  0  0
  1  6  1  0  0  0  0
  1  7  1  0  0  0  0
  1  8  1  0  0  0  0
  2  5  1  0  0  0  0
  2  9  1  0  0  0  0
  3  4  1  0  0  0  0
  3 10  1  0  0  0  0
  3 11  1  0  0  0  0
  3 12  1  0  0  0  0
  4  5  1  0  0  0  0
  4 13  1  0  0  0  0
  4 14  1  0  0  0  0
  5  6  1  0  0  0  0
  5 15  1  1  0  0  0
  6 16  1  0  0  0  0
  6 17  1  0  0  0  0
M  END
$$$$
