Title Card Required
 OpenBabel03192317423D

 42 43  0  0  1  0  0  0  0  0999 V2000
    0.3329    2.0624   -0.5310 C   0  0  0  0  0  0  0  0  0  0  0  0
   -0.5065    1.5100    0.5661 N   0  0  0  0  0  0  0  0  0  0  0  0
   -0.0145    0.3507    1.0186 C   0  0  2  0  0  3  0  0  0  0  0  0
    1.3074    0.1064    0.3084 C   0  0  1  0  0  0  0  0  0  0  0  0
    1.6041    1.3668   -0.3593 N   0  0  0  0  0  0  0  0  0  0  0  0
   -0.5272   -0.4125    1.8395 O   0  0  0  0  0  0  0  0  0  0  0  0
   -1.8267    1.9979    0.8834 C   0  0  0  0  0  0  0  0  0  0  0  0
   -0.2900    1.7111   -1.8812 C   0  0  0  0  0  0  0  0  0  0  0  0
    0.5172    3.5637   -0.3770 C   0  0  0  0  0  0  0  0  0  0  0  0
    2.3990   -0.3839    1.2530 C   0  0  0  0  0  0  0  0  0  0  0  0
    3.6761   -0.7299    0.5293 C   0  0  0  0  0  0  0  0  0  0  0  0
    4.7679    0.1420    0.5256 C   0  0  0  0  0  0  0  0  0  0  0  0
    5.9288   -0.1700   -0.1822 C   0  0  0  0  0  0  0  0  0  0  0  0
    6.0116   -1.3634   -0.8963 C   0  0  0  0  0  0  0  0  0  0  0  0
    4.9290   -2.2434   -0.8967 C   0  0  0  0  0  0  0  0  0  0  0  0
    3.7722   -1.9274   -0.1892 C   0  0  0  0  0  0  0  0  0  0  0  0
    1.1001   -0.6836   -0.4380 H   0  0  0  0  0  0  0  0  0  0  0  0
    2.2099    1.9218    0.2445 H   0  0  0  0  0  0  0  0  0  0  0  0
   -2.1974    1.4517    1.7595 H   0  0  0  0  0  0  0  0  0  0  0  0
   -1.7960    3.0699    1.1222 H   0  0  0  0  0  0  0  0  0  0  0  0
   -2.5252    1.8334    0.0472 H   0  0  0  0  0  0  0  0  0  0  0  0
   -1.2809    2.1752   -1.9927 H   0  0  0  0  0  0  0  0  0  0  0  0
    0.3648    2.0746   -2.6839 H   0  0  0  0  0  0  0  0  0  0  0  0
   -0.4144    0.6244   -1.9772 H   0  0  0  0  0  0  0  0  0  0  0  0
    0.8637    3.8073    0.6385 H   0  0  0  0  0  0  0  0  0  0  0  0
    1.2653    3.9080   -1.1042 H   0  0  0  0  0  0  0  0  0  0  0  0
   -0.4190    4.1044   -0.5711 H   0  0  0  0  0  0  0  0  0  0  0  0
    2.5865    0.3912    2.0142 H   0  0  0  0  0  0  0  0  0  0  0  0
    1.9972   -1.2608    1.7817 H   0  0  0  0  0  0  0  0  0  0  0  0
    4.7137    1.0754    1.0918 H   0  0  0  0  0  0  0  0  0  0  0  0
    6.7728    0.5214   -0.1729 H   0  0  0  0  0  0  0  0  0  0  0  0
    6.9190   -1.6104   -1.4494 H   0  0  0  0  0  0  0  0  0  0  0  0
    4.9878   -3.1826   -1.4491 H   0  0  0  0  0  0  0  0  0  0  0  0
    2.9280   -2.6217   -0.1888 H   0  0  0  0  0  0  0  0  0  0  0  0
   -3.0208   -0.9305    0.0650 C   0  0  0  0  0  0  0  0  0  0  0  0
   -4.4847   -0.9946   -0.4104 C   0  0  0  0  0  0  0  0  0  0  0  0
   -2.1285   -0.7603   -0.7230 O   0  0  0  0  0  0  0  0  0  0  0  0
   -2.9400   -0.9990    1.3617 O   0  0  0  0  0  0  0  0  0  0  0  0
   -5.1976   -1.8693    0.2837 F   0  0  0  0  0  0  0  0  0  0  0  0
   -5.0339    0.2138   -0.2489 F   0  0  0  0  0  0  0  0  0  0  0  0
   -4.5519   -1.3106   -1.6916 F   0  0  0  0  0  0  0  0  0  0  0  0
   -1.9750   -0.8143    1.6493 H   0  0  0  0  0  0  0  0  0  0  0  0
  1  2  1  0  0  0  0
  1  5  1  0  0  0  0
  1  8  1  0  0  0  0
  1  9  1  0  0  0  0
  2  3  1  0  0  0  0
  2  7  1  0  0  0  0
  3  4  1  0  0  0  0
  3  6  1  6  0  0  0
  4  5  1  0  0  0  0
  4 10  1  0  0  0  0
  4 17  1  6  0  0  0
  5 18  1  0  0  0  0
  6 42  1  0  0  0  0
  7 19  1  0  0  0  0
  7 20  1  0  0  0  0
  7 21  1  0  0  0  0
  8 22  1  0  0  0  0
  8 23  1  0  0  0  0
  8 24  1  0  0  0  0
  9 25  1  0  0  0  0
  9 26  1  0  0  0  0
  9 27  1  0  0  0  0
 10 11  1  0  0  0  0
 10 28  1  0  0  0  0
 10 29  1  0  0  0  0
 11 12  2  0  0  0  0
 11 16  1  0  0  0  0
 12 13  1  0  0  0  0
 12 30  1  0  0  0  0
 13 14  2  0  0  0  0
 13 31  1  0  0  0  0
 14 15  1  0  0  0  0
 14 32  1  0  0  0  0
 15 16  2  0  0  0  0
 15 33  1  0  0  0  0
 16 34  1  0  0  0  0
 35 36  1  0  0  0  0
 35 37  2  0  0  0  0
 35 38  1  0  0  0  0
 36 39  1  0  0  0  0
 36 40  1  0  0  0  0
 36 41  1  0  0  0  0
 38 42  1  0  0  0  0
M  END
$$$$
