Title Card Required
 OpenBabel03192317493D

 20 20  0  0  1  0  0  0  0  0999 V2000
    0.3546   -1.1725   -0.1644 N   0  0  0  0  0  0  0  0  0  0  0  0
   -0.3253   -0.0014    0.3323 C   0  0  1  0  0  0  0  0  0  0  0  0
    0.3283    1.2586   -0.2374 C   0  0  0  0  0  0  0  0  0  0  0  0
    1.8146    1.2688    0.1232 C   0  0  0  0  0  0  0  0  0  0  0  0
    2.4943   -0.0330   -0.3026 C   0  0  0  0  0  0  0  0  0  0  0  0
    1.7406   -1.2368    0.2560 C   0  0  0  0  0  0  0  0  0  0  0  0
   -1.8021   -0.1234    0.0186 C   0  0  0  0  0  0  0  0  0  0  0  0
   -2.3595   -1.1549   -0.2349 O   0  0  0  0  0  0  0  0  0  0  0  0
   -2.4481    1.0461    0.1083 O   0  0  0  0  0  0  0  0  0  0  0  0
   -0.1728   -2.0117    0.0611 H   0  0  0  0  0  0  0  0  0  0  0  0
   -0.2807    0.0805    1.4470 H   0  0  0  0  0  0  0  0  0  0  0  0
   -0.1811    2.1515    0.1492 H   0  0  0  0  0  0  0  0  0  0  0  0
    0.2052    1.2429   -1.3320 H   0  0  0  0  0  0  0  0  0  0  0  0
    2.3122    2.1362   -0.3348 H   0  0  0  0  0  0  0  0  0  0  0  0
    1.9139    1.3867    1.2167 H   0  0  0  0  0  0  0  0  0  0  0  0
    2.4944   -0.1046   -1.4019 H   0  0  0  0  0  0  0  0  0  0  0  0
    3.5418   -0.0514    0.0334 H   0  0  0  0  0  0  0  0  0  0  0  0
    2.1814   -2.1712   -0.1195 H   0  0  0  0  0  0  0  0  0  0  0  0
    1.8475   -1.2437    1.3644 H   0  0  0  0  0  0  0  0  0  0  0  0
   -3.3856    0.8653   -0.0614 H   0  0  0  0  0  0  0  0  0  0  0  0
  1  2  1  0  0  0  0
  1  6  1  0  0  0  0
  1 10  1  0  0  0  0
  2  3  1  0  0  0  0
  2  7  1  0  0  0  0
  2 11  1  1  0  0  0
  3  4  1  0  0  0  0
  3 12  1  0  0  0  0
  3 13  1  0  0  0  0
  4  5  1  0  0  0  0
  4 14  1  0  0  0  0
  4 15  1  0  0  0  0
  5  6  1  0  0  0  0
  5 16  1  0  0  0  0
  5 17  1  0  0  0  0
  6 18  1  0  0  0  0
  6 19  1  0  0  0  0
  7  8  2  0  0  0  0
  7  9  1  0  0  0  0
  9 20  1  0  0  0  0
M  END
$$$$
