Title Card Required
 OpenBabel03192317563D

 51 53  0  0  1  0  0  0  0  0999 V2000
    1.7617   -0.7524   -0.5201 C   0  0  0  0  0  0  0  0  0  0  0  0
    2.6779   -1.2823    0.3892 C   0  0  0  0  0  0  0  0  0  0  0  0
    3.8308   -0.5600    0.6649 C   0  0  0  0  0  0  0  0  0  0  0  0
    4.0748    0.6665    0.0388 C   0  0  0  0  0  0  0  0  0  0  0  0
    3.1543    1.1622   -0.8745 C   0  0  0  0  0  0  0  0  0  0  0  0
    1.9868    0.4518   -1.1693 C   0  0  0  0  0  0  0  0  0  0  0  0
    0.2619   -1.6591   -0.8716 S   0  0  0  0  0  0  0  0  0  0  0  0
   -0.2809   -1.0892   -2.0885 O   0  0  0  0  0  0  0  0  0  0  0  0
    0.5733   -3.0697   -0.7227 O   0  0  0  0  0  0  0  0  0  0  0  0
   -0.7281   -1.2708    0.3990 N   0  0  0  0  0  0  0  0  0  0  0  0
    3.3843    2.4792   -1.5727 C   0  0  0  0  0  0  0  0  0  0  0  0
    4.5572    3.0155   -1.2444 F   0  0  0  0  0  0  0  0  0  0  0  0
    3.3561    2.3311   -2.8958 F   0  0  0  0  0  0  0  0  0  0  0  0
    2.4318    3.3572   -1.2556 F   0  0  0  0  0  0  0  0  0  0  0  0
    4.8504   -1.0768    1.6491 C   0  0  0  0  0  0  0  0  0  0  0  0
    4.5466   -2.2985    2.0789 F   0  0  0  0  0  0  0  0  0  0  0  0
    6.0640   -1.1220    1.1013 F   0  0  0  0  0  0  0  0  0  0  0  0
    4.9312   -0.2782    2.7144 F   0  0  0  0  0  0  0  0  0  0  0  0
   -1.8705   -0.3819    0.2200 C   0  0  2  0  0  0  0  0  0  0  0  0
   -2.3601    0.0009    1.6554 C   0  0  1  0  0  0  0  0  0  0  0  0
   -3.3198    1.1774    1.5912 C   0  0  0  0  0  0  0  0  0  0  0  0
   -2.8577    2.4182    1.1361 C   0  0  0  0  0  0  0  0  0  0  0  0
   -3.7266    3.4979    1.0040 C   0  0  0  0  0  0  0  0  0  0  0  0
   -5.0758    3.3503    1.3303 C   0  0  0  0  0  0  0  0  0  0  0  0
   -5.5381    2.1248    1.8045 C   0  0  0  0  0  0  0  0  0  0  0  0
   -4.6635    1.0460    1.9414 C   0  0  0  0  0  0  0  0  0  0  0  0
   -2.9901   -0.9749   -0.6216 C   0  0  0  0  0  0  0  0  0  0  0  0
   -3.0946   -2.3531   -0.8336 C   0  0  0  0  0  0  0  0  0  0  0  0
   -4.1622   -2.8845   -1.5577 C   0  0  0  0  0  0  0  0  0  0  0  0
   -5.1392   -2.0436   -2.0836 C   0  0  0  0  0  0  0  0  0  0  0  0
   -5.0356   -0.6661   -1.8907 C   0  0  0  0  0  0  0  0  0  0  0  0
   -3.9707   -0.1359   -1.1670 C   0  0  0  0  0  0  0  0  0  0  0  0
   -2.9095   -1.1231    2.3820 N   0  0  0  0  0  0  0  0  0  0  0  0
    2.4943   -2.2515    0.8554 H   0  0  0  0  0  0  0  0  0  0  0  0
    4.9863    1.2255    0.2569 H   0  0  0  0  0  0  0  0  0  0  0  0
    1.2661    0.8167   -1.9046 H   0  0  0  0  0  0  0  0  0  0  0  0
   -0.9025   -2.0951    0.9708 H   0  0  0  0  0  0  0  0  0  0  0  0
   -1.5027    0.5303   -0.2731 H   0  0  0  0  0  0  0  0  0  0  0  0
   -1.4590    0.3379    2.1916 H   0  0  0  0  0  0  0  0  0  0  0  0
   -1.8017    2.5426    0.8796 H   0  0  0  0  0  0  0  0  0  0  0  0
   -3.3503    4.4586    0.6486 H   0  0  0  0  0  0  0  0  0  0  0  0
   -5.7613    4.1924    1.2248 H   0  0  0  0  0  0  0  0  0  0  0  0
   -6.5888    2.0053    2.0738 H   0  0  0  0  0  0  0  0  0  0  0  0
   -5.0203    0.0919    2.3292 H   0  0  0  0  0  0  0  0  0  0  0  0
   -2.3174   -3.0296   -0.4716 H   0  0  0  0  0  0  0  0  0  0  0  0
   -4.2191   -3.9618   -1.7201 H   0  0  0  0  0  0  0  0  0  0  0  0
   -5.9718   -2.4582   -2.6537 H   0  0  0  0  0  0  0  0  0  0  0  0
   -5.7864    0.0047   -2.3110 H   0  0  0  0  0  0  0  0  0  0  0  0
   -3.8983    0.9444   -1.0277 H   0  0  0  0  0  0  0  0  0  0  0  0
   -2.1982   -1.7094    2.8055 H   0  0  0  0  0  0  0  0  0  0  0  0
   -3.5187   -1.6969    1.8003 H   0  0  0  0  0  0  0  0  0  0  0  0
  1  2  2  0  0  0  0
  1  6  1  0  0  0  0
  1  7  1  0  0  0  0
  2  3  1  0  0  0  0
  2 34  1  0  0  0  0
  3  4  2  0  0  0  0
  3 15  1  0  0  0  0
  4  5  1  0  0  0  0
  4 35  1  0  0  0  0
  5  6  2  0  0  0  0
  5 11  1  0  0  0  0
  6 36  1  0  0  0  0
  7  8  2  0  0  0  0
  7  9  2  0  0  0  0
  7 10  1  0  0  0  0
 10 19  1  0  0  0  0
 10 37  1  0  0  0  0
 11 12  1  0  0  0  0
 11 13  1  0  0  0  0
 11 14  1  0  0  0  0
 15 16  1  0  0  0  0
 15 17  1  0  0  0  0
 15 18  1  0  0  0  0
 19 20  1  0  0  0  0
 19 27  1  0  0  0  0
 19 38  1  6  0  0  0
 20 21  1  0  0  0  0
 20 33  1  0  0  0  0
 20 39  1  1  0  0  0
 21 22  2  0  0  0  0
 21 26  1  0  0  0  0
 22 23  1  0  0  0  0
 22 40  1  0  0  0  0
 23 24  2  0  0  0  0
 23 41  1  0  0  0  0
 24 25  1  0  0  0  0
 24 42  1  0  0  0  0
 25 26  2  0  0  0  0
 25 43  1  0  0  0  0
 26 44  1  0  0  0  0
 27 28  2  0  0  0  0
 27 32  1  0  0  0  0
 28 29  1  0  0  0  0
 28 45  1  0  0  0  0
 29 30  2  0  0  0  0
 29 46  1  0  0  0  0
 30 31  1  0  0  0  0
 30 47  1  0  0  0  0
 31 32  2  0  0  0  0
 31 48  1  0  0  0  0
 32 49  1  0  0  0  0
 33 50  1  0  0  0  0
 33 51  1  0  0  0  0
M  END
$$$$
