Title Card Required
 OpenBabel03192317573D

 55 59  0  0  1  0  0  0  0  0999 V2000
    5.0879   -0.0298    0.8844 C   0  0  0  0  0  0  0  0  0  0  0  0
    6.4733   -0.1796    0.8148 C   0  0  0  0  0  0  0  0  0  0  0  0
    7.0552   -0.7871   -0.2956 C   0  0  0  0  0  0  0  0  0  0  0  0
    6.2437   -1.2464   -1.3338 C   0  0  0  0  0  0  0  0  0  0  0  0
    4.8614   -1.0946   -1.2596 C   0  0  0  0  0  0  0  0  0  0  0  0
    4.2625   -0.4838   -0.1498 C   0  0  0  0  0  0  0  0  0  0  0  0
    2.7691   -0.2888   -0.1025 C   0  0  0  0  0  0  0  0  0  0  0  0
   -0.4204   -2.4732   -0.1846 C   0  0  0  0  0  0  0  0  0  0  0  0
    0.3319   -3.2959    0.6527 C   0  0  0  0  0  0  0  0  0  0  0  0
    0.6794   -2.8601    1.9313 C   0  0  0  0  0  0  0  0  0  0  0  0
    0.2576   -1.6051    2.3696 C   0  0  0  0  0  0  0  0  0  0  0  0
   -0.5022   -0.7859    1.5334 C   0  0  0  0  0  0  0  0  0  0  0  0
   -0.8448   -1.2100    0.2452 C   0  0  0  0  0  0  0  0  0  0  0  0
   -3.8927   -1.5356    0.5465 C   0  0  0  0  0  0  0  0  0  0  0  0
   -5.1867   -2.0322    0.6965 C   0  0  0  0  0  0  0  0  0  0  0  0
   -6.1139   -1.9016   -0.3380 C   0  0  0  0  0  0  0  0  0  0  0  0
   -5.7405   -1.2786   -1.5278 C   0  0  0  0  0  0  0  0  0  0  0  0
   -4.4420   -0.7922   -1.6799 C   0  0  0  0  0  0  0  0  0  0  0  0
   -3.5069   -0.9028   -0.6427 C   0  0  0  0  0  0  0  0  0  0  0  0
   -1.8165   -0.2124   -0.9699 P   0  0  0  0  0  0  0  0  0  0  0  0
   -1.0173    3.5767    0.6123 C   0  0  0  0  0  0  0  0  0  0  0  0
   -2.2702    4.0159    1.0258 C   0  0  0  0  0  0  0  0  0  0  0  0
   -3.3674    3.1751    0.8711 C   0  0  0  0  0  0  0  0  0  0  0  0
   -3.2097    1.9067    0.3123 C   0  0  0  0  0  0  0  0  0  0  0  0
   -1.9594    1.4376   -0.1137 C   0  0  0  0  0  0  0  0  0  0  0  0
   -0.8532    2.3096    0.0396 C   0  0  0  0  0  0  0  0  0  0  0  0
    2.6998    2.2385   -0.6060 C   0  0  0  0  0  0  0  0  0  0  0  0
    2.2858    0.8209   -1.0518 C   0  0  2  0  0  0  0  0  0  0  0  0
    0.8273    0.8752   -1.0164 N   0  0  0  0  0  0  0  0  0  0  0  0
    0.5093    1.9197   -0.3700 C   0  0  0  0  0  0  0  0  0  0  0  0
    1.5152    2.7459    0.0148 O   0  0  0  0  0  0  0  0  0  0  0  0
    4.6354    0.4387    1.7621 H   0  0  0  0  0  0  0  0  0  0  0  0
    7.1000    0.1770    1.6340 H   0  0  0  0  0  0  0  0  0  0  0  0
    8.1382   -0.9071   -0.3513 H   0  0  0  0  0  0  0  0  0  0  0  0
    6.6915   -1.7289   -2.2042 H   0  0  0  0  0  0  0  0  0  0  0  0
    4.2295   -1.4634   -2.0718 H   0  0  0  0  0  0  0  0  0  0  0  0
    2.2415   -1.2162   -0.3749 H   0  0  0  0  0  0  0  0  0  0  0  0
    2.4463   -0.0323    0.9193 H   0  0  0  0  0  0  0  0  0  0  0  0
   -0.6774   -2.8120   -1.1916 H   0  0  0  0  0  0  0  0  0  0  0  0
    0.6562   -4.2772    0.3019 H   0  0  0  0  0  0  0  0  0  0  0  0
    1.2774   -3.4974    2.5847 H   0  0  0  0  0  0  0  0  0  0  0  0
    0.5218   -1.2595    3.3708 H   0  0  0  0  0  0  0  0  0  0  0  0
   -0.8273    0.1951    1.8891 H   0  0  0  0  0  0  0  0  0  0  0  0
   -3.1742   -1.6415    1.3621 H   0  0  0  0  0  0  0  0  0  0  0  0
   -5.4727   -2.5259    1.6269 H   0  0  0  0  0  0  0  0  0  0  0  0
   -7.1258   -2.2923   -0.2183 H   0  0  0  0  0  0  0  0  0  0  0  0
   -6.4584   -1.1802   -2.3438 H   0  0  0  0  0  0  0  0  0  0  0  0
   -4.1446   -0.3173   -2.6187 H   0  0  0  0  0  0  0  0  0  0  0  0
   -0.1396    4.2127    0.7235 H   0  0  0  0  0  0  0  0  0  0  0  0
   -2.3865    5.0070    1.4661 H   0  0  0  0  0  0  0  0  0  0  0  0
   -4.3589    3.4990    1.1918 H   0  0  0  0  0  0  0  0  0  0  0  0
   -4.0877    1.2686    0.2131 H   0  0  0  0  0  0  0  0  0  0  0  0
    3.5205    2.2527    0.1232 H   0  0  0  0  0  0  0  0  0  0  0  0
    2.9579    2.8890   -1.4553 H   0  0  0  0  0  0  0  0  0  0  0  0
    2.6336    0.5990   -2.0714 H   0  0  0  0  0  0  0  0  0  0  0  0
  1  2  2  0  0  0  0
  1  6  1  0  0  0  0
  1 32  1  0  0  0  0
  2  3  1  0  0  0  0
  2 33  1  0  0  0  0
  3  4  2  0  0  0  0
  3 34  1  0  0  0  0
  4  5  1  0  0  0  0
  4 35  1  0  0  0  0
  5  6  2  0  0  0  0
  5 36  1  0  0  0  0
  6  7  1  0  0  0  0
  7 28  1  0  0  0  0
  7 37  1  0  0  0  0
  7 38  1  0  0  0  0
  8  9  2  0  0  0  0
  8 13  1  0  0  0  0
  8 39  1  0  0  0  0
  9 10  1  0  0  0  0
  9 40  1  0  0  0  0
 10 11  2  0  0  0  0
 10 41  1  0  0  0  0
 11 12  1  0  0  0  0
 11 42  1  0  0  0  0
 12 13  2  0  0  0  0
 12 43  1  0  0  0  0
 13 20  1  0  0  0  0
 14 15  2  0  0  0  0
 14 19  1  0  0  0  0
 14 44  1  0  0  0  0
 15 16  1  0  0  0  0
 15 45  1  0  0  0  0
 16 17  2  0  0  0  0
 16 46  1  0  0  0  0
 17 18  1  0  0  0  0
 17 47  1  0  0  0  0
 18 19  2  0  0  0  0
 18 48  1  0  0  0  0
 19 20  1  0  0  0  0
 20 25  1  0  0  0  0
 21 22  2  0  0  0  0
 21 26  1  0  0  0  0
 21 49  1  0  0  0  0
 22 23  1  0  0  0  0
 22 50  1  0  0  0  0
 23 24  2  0  0  0  0
 23 51  1  0  0  0  0
 24 25  1  0  0  0  0
 24 52  1  0  0  0  0
 25 26  2  0  0  0  0
 26 30  1  0  0  0  0
 27 28  1  0  0  0  0
 27 31  1  0  0  0  0
 27 53  1  0  0  0  0
 27 54  1  0  0  0  0
 28 29  1  0  0  0  0
 28 55  1  6  0  0  0
 29 30  2  0  0  0  0
 30 31  1  0  0  0  0
M  END
$$$$
