Title Card Required
 OpenBabel03192317563D

 29 30  0  0  1  0  0  0  0  0999 V2000
   -0.6168   -1.2083    0.4196 O   0  0  0  0  0  0  0  0  0  0  0  0
   -0.5925   -0.0347   -0.2469 C   0  0  0  0  0  0  0  0  0  0  0  0
   -1.6300    0.3093   -0.8928 N   0  0  0  0  0  0  0  0  0  0  0  0
   -2.6373   -0.7259   -0.6513 C   0  0  1  0  0  0  0  0  0  0  0  0
   -1.8385   -1.8479    0.0487 C   0  0  0  0  0  0  0  0  0  0  0  0
   -3.8031   -0.1690    0.1856 C   0  0  0  0  0  0  0  0  0  0  0  0
   -3.3174    0.4117    1.5130 C   0  0  0  0  0  0  0  0  0  0  0  0
   -4.5904    0.8659   -0.6128 C   0  0  0  0  0  0  0  0  0  0  0  0
    0.6222    0.8044   -0.1155 C   0  0  0  0  0  0  0  0  0  0  0  0
    1.9311    0.3191    0.0204 C   0  0  0  0  0  0  0  0  0  0  0  0
    3.0038    1.2036    0.1468 C   0  0  0  0  0  0  0  0  0  0  0  0
    2.7842    2.5773    0.1337 C   0  0  0  0  0  0  0  0  0  0  0  0
    1.4913    3.0762   -0.0198 C   0  0  0  0  0  0  0  0  0  0  0  0
    0.4271    2.1929   -0.1458 C   0  0  0  0  0  0  0  0  0  0  0  0
    2.3562   -1.5254   -0.0295 Br  0  0  0  0  0  0  0  0  0  0  0  0
   -3.0407   -1.0708   -1.6158 H   0  0  0  0  0  0  0  0  0  0  0  0
   -2.3231   -2.2379    0.9543 H   0  0  0  0  0  0  0  0  0  0  0  0
   -1.6026   -2.6859   -0.6240 H   0  0  0  0  0  0  0  0  0  0  0  0
   -4.4642   -1.0282    0.3987 H   0  0  0  0  0  0  0  0  0  0  0  0
   -2.7183    1.3177    1.3355 H   0  0  0  0  0  0  0  0  0  0  0  0
   -4.1688    0.6892    2.1505 H   0  0  0  0  0  0  0  0  0  0  0  0
   -2.6914   -0.2979    2.0754 H   0  0  0  0  0  0  0  0  0  0  0  0
   -4.9970    0.4328   -1.5385 H   0  0  0  0  0  0  0  0  0  0  0  0
   -5.4298    1.2626   -0.0237 H   0  0  0  0  0  0  0  0  0  0  0  0
   -3.9331    1.7021   -0.8918 H   0  0  0  0  0  0  0  0  0  0  0  0
    4.0123    0.8022    0.2454 H   0  0  0  0  0  0  0  0  0  0  0  0
    3.6308    3.2576    0.2360 H   0  0  0  0  0  0  0  0  0  0  0  0
    1.3127    4.1516   -0.0397 H   0  0  0  0  0  0  0  0  0  0  0  0
   -0.5944    2.5535   -0.2723 H   0  0  0  0  0  0  0  0  0  0  0  0
  1  2  1  0  0  0  0
  1  5  1  0  0  0  0
  2  3  2  0  0  0  0
  2  9  1  0  0  0  0
  3  4  1  0  0  0  0
  4  5  1  0  0  0  0
  4  6  1  0  0  0  0
  4 16  1  6  0  0  0
  5 17  1  0  0  0  0
  5 18  1  0  0  0  0
  6  7  1  0  0  0  0
  6  8  1  0  0  0  0
  6 19  1  0  0  0  0
  7 20  1  0  0  0  0
  7 21  1  0  0  0  0
  7 22  1  0  0  0  0
  8 23  1  0  0  0  0
  8 24  1  0  0  0  0
  8 25  1  0  0  0  0
  9 10  2  0  0  0  0
  9 14  1  0  0  0  0
 10 11  1  0  0  0  0
 10 15  1  0  0  0  0
 11 12  2  0  0  0  0
 11 26  1  0  0  0  0
 12 13  1  0  0  0  0
 12 27  1  0  0  0  0
 13 14  2  0  0  0  0
 13 28  1  0  0  0  0
 14 29  1  0  0  0  0
M  END
$$$$
