Title Card Required
 OpenBabel03192317533D

 23 25  0  0  0  0  0  0  0  0999 V2000
   -0.4587   -1.0421   -0.0001 O   0  0  0  0  0  0  0  0  0  0  0  0
    0.2408    0.1163    0.0007 C   0  0  0  0  0  0  0  0  0  0  0  0
   -0.4696    1.1952   -0.0002 N   0  0  0  0  0  0  0  0  0  0  0  0
   -1.7800    0.7434    0.0001 C   0  0  0  0  0  0  0  0  0  0  0  0
   -1.7584   -0.6576   -0.0000 C   0  0  0  0  0  0  0  0  0  0  0  0
   -2.9019   -1.4466   -0.0001 C   0  0  0  0  0  0  0  0  0  0  0  0
   -4.1101   -0.7553   -0.0002 C   0  0  0  0  0  0  0  0  0  0  0  0
   -4.1590    0.6524   -0.0001 C   0  0  0  0  0  0  0  0  0  0  0  0
   -3.0025    1.4234    0.0000 C   0  0  0  0  0  0  0  0  0  0  0  0
    1.7128    0.0382    0.0006 C   0  0  0  0  0  0  0  0  0  0  0  0
    2.4491    1.2293    0.0002 C   0  0  0  0  0  0  0  0  0  0  0  0
    3.8357    1.1375   -0.0003 C   0  0  0  0  0  0  0  0  0  0  0  0
    4.4241   -0.1255   -0.0005 C   0  0  0  0  0  0  0  0  0  0  0  0
    3.5916   -1.2467   -0.0001 C   0  0  0  0  0  0  0  0  0  0  0  0
    2.2657   -1.1730    0.0004 N   0  0  0  0  0  0  0  0  0  0  0  0
   -2.8477   -2.5343   -0.0003 H   0  0  0  0  0  0  0  0  0  0  0  0
   -5.0443   -1.3184   -0.0004 H   0  0  0  0  0  0  0  0  0  0  0  0
   -5.1318    1.1457   -0.0003 H   0  0  0  0  0  0  0  0  0  0  0  0
   -3.0321    2.5126   -0.0001 H   0  0  0  0  0  0  0  0  0  0  0  0
    1.9205    2.1823    0.0003 H   0  0  0  0  0  0  0  0  0  0  0  0
    4.4500    2.0392   -0.0007 H   0  0  0  0  0  0  0  0  0  0  0  0
    5.5075   -0.2468   -0.0011 H   0  0  0  0  0  0  0  0  0  0  0  0
    4.0223   -2.2524   -0.0002 H   0  0  0  0  0  0  0  0  0  0  0  0
  1  2  1  0  0  0  0
  1  5  1  0  0  0  0
  2  3  2  0  0  0  0
  2 10  1  0  0  0  0
  3  4  1  0  0  0  0
  4  5  2  0  0  0  0
  4  9  1  0  0  0  0
  5  6  1  0  0  0  0
  6  7  2  0  0  0  0
  6 16  1  0  0  0  0
  7  8  1  0  0  0  0
  7 17  1  0  0  0  0
  8  9  2  0  0  0  0
  8 18  1  0  0  0  0
  9 19  1  0  0  0  0
 10 11  2  0  0  0  0
 10 15  1  0  0  0  0
 11 12  1  0  0  0  0
 11 20  1  0  0  0  0
 12 13  2  0  0  0  0
 12 21  1  0  0  0  0
 13 14  1  0  0  0  0
 13 22  1  0  0  0  0
 14 15  2  0  0  0  0
 14 23  1  0  0  0  0
M  END
$$$$
