Title Card Required
 OpenBabel03192317483D

 60 61  0  0  0  0  0  0  0  0999 V2000
   -2.3123   -1.9793   -1.0848 C   0  0  0  0  0  0  0  0  0  0  0  0
   -1.0007   -1.4844   -1.1511 C   0  0  0  0  0  0  0  0  0  0  0  0
   -0.6927   -0.2819   -0.4865 C   0  0  0  0  0  0  0  0  0  0  0  0
   -1.6889    0.4143    0.2276 C   0  0  0  0  0  0  0  0  0  0  0  0
   -3.0137   -0.0568    0.2907 C   0  0  0  0  0  0  0  0  0  0  0  0
   -3.2751   -1.2565   -0.3766 C   0  0  0  0  0  0  0  0  0  0  0  0
    0.6927    0.2825   -0.4863 C   0  0  0  0  0  0  0  0  0  0  0  0
    1.0011    1.4851   -1.1505 C   0  0  0  0  0  0  0  0  0  0  0  0
    2.3128    1.9797   -1.0840 C   0  0  0  0  0  0  0  0  0  0  0  0
    3.2754    1.2565   -0.3759 C   0  0  0  0  0  0  0  0  0  0  0  0
    3.0136    0.0567    0.2910 C   0  0  0  0  0  0  0  0  0  0  0  0
    1.6887   -0.4141    0.2276 C   0  0  0  0  0  0  0  0  0  0  0  0
   -1.3702    1.5707    0.8611 O   0  0  0  0  0  0  0  0  0  0  0  0
    1.3699   -1.5707    0.8607 O   0  0  0  0  0  0  0  0  0  0  0  0
    2.6834    3.2655   -1.7763 C   0  0  0  0  0  0  0  0  0  0  0  0
   -0.0493    2.2454   -1.9206 C   0  0  0  0  0  0  0  0  0  0  0  0
    0.0501   -2.2443   -1.9209 C   0  0  0  0  0  0  0  0  0  0  0  0
   -2.6826   -3.2652   -1.7773 C   0  0  0  0  0  0  0  0  0  0  0  0
   -4.1029    0.7078    1.0544 C   0  0  0  0  0  0  0  0  0  0  0  0
   -4.2751    2.1125    0.4491 C   0  0  0  0  0  0  0  0  0  0  0  0
   -5.4562   -0.0066    0.9675 C   0  0  0  0  0  0  0  0  0  0  0  0
   -3.7262    0.8135    2.5428 C   0  0  0  0  0  0  0  0  0  0  0  0
    4.1025   -0.7085    1.0545 C   0  0  0  0  0  0  0  0  0  0  0  0
    3.7255   -0.8145    2.5428 C   0  0  0  0  0  0  0  0  0  0  0  0
    4.2745   -2.1129    0.4486 C   0  0  0  0  0  0  0  0  0  0  0  0
    5.4559    0.0059    0.9680 C   0  0  0  0  0  0  0  0  0  0  0  0
   -4.2852   -1.6650   -0.3495 H   0  0  0  0  0  0  0  0  0  0  0  0
    4.2856    1.6647   -0.3487 H   0  0  0  0  0  0  0  0  0  0  0  0
   -0.4148    1.7129    0.7914 H   0  0  0  0  0  0  0  0  0  0  0  0
    0.4145   -1.7131    0.7904 H   0  0  0  0  0  0  0  0  0  0  0  0
    2.5761    3.1817   -2.8694 H   0  0  0  0  0  0  0  0  0  0  0  0
    2.0400    4.0993   -1.4563 H   0  0  0  0  0  0  0  0  0  0  0  0
    3.7247    3.5394   -1.5625 H   0  0  0  0  0  0  0  0  0  0  0  0
   -0.9592    1.6513   -2.0677 H   0  0  0  0  0  0  0  0  0  0  0  0
   -0.3342    3.1718   -1.3958 H   0  0  0  0  0  0  0  0  0  0  0  0
    0.3321    2.5423   -2.9080 H   0  0  0  0  0  0  0  0  0  0  0  0
    0.9592   -1.6492   -2.0693 H   0  0  0  0  0  0  0  0  0  0  0  0
    0.3367   -3.1697   -1.3952 H   0  0  0  0  0  0  0  0  0  0  0  0
   -0.3315   -2.5429   -2.9077 H   0  0  0  0  0  0  0  0  0  0  0  0
   -2.5771   -3.1805   -2.8705 H   0  0  0  0  0  0  0  0  0  0  0  0
   -2.0379   -4.0984   -1.4587 H   0  0  0  0  0  0  0  0  0  0  0  0
   -3.7233   -3.5402   -1.5620 H   0  0  0  0  0  0  0  0  0  0  0  0
   -4.5705    2.0396   -0.6087 H   0  0  0  0  0  0  0  0  0  0  0  0
   -5.0670    2.6559    0.9878 H   0  0  0  0  0  0  0  0  0  0  0  0
   -3.3482    2.6943    0.5143 H   0  0  0  0  0  0  0  0  0  0  0  0
   -5.4155   -1.0133    1.4092 H   0  0  0  0  0  0  0  0  0  0  0  0
   -6.2056    0.5737    1.5251 H   0  0  0  0  0  0  0  0  0  0  0  0
   -5.8065   -0.0953   -0.0716 H   0  0  0  0  0  0  0  0  0  0  0  0
   -3.6256   -0.1897    2.9839 H   0  0  0  0  0  0  0  0  0  0  0  0
   -2.7825    1.3531    2.6819 H   0  0  0  0  0  0  0  0  0  0  0  0
   -4.5181    1.3487    3.0896 H   0  0  0  0  0  0  0  0  0  0  0  0
    2.7816   -1.3539    2.6815 H   0  0  0  0  0  0  0  0  0  0  0  0
    4.5171   -1.3500    3.0896 H   0  0  0  0  0  0  0  0  0  0  0  0
    3.6251    0.1886    2.9842 H   0  0  0  0  0  0  0  0  0  0  0  0
    4.5700   -2.0396   -0.6091 H   0  0  0  0  0  0  0  0  0  0  0  0
    5.0663   -2.6566    0.9871 H   0  0  0  0  0  0  0  0  0  0  0  0
    3.3475   -2.6946    0.5135 H   0  0  0  0  0  0  0  0  0  0  0  0
    5.8065    0.0947   -0.0710 H   0  0  0  0  0  0  0  0  0  0  0  0
    5.4151    1.0125    1.4097 H   0  0  0  0  0  0  0  0  0  0  0  0
    6.2051   -0.5745    1.5258 H   0  0  0  0  0  0  0  0  0  0  0  0
  1  2  2  0  0  0  0
  1  6  1  0  0  0  0
  1 18  1  0  0  0  0
  2  3  1  0  0  0  0
  2 17  1  0  0  0  0
  3  4  2  0  0  0  0
  3  7  1  0  0  0  0
  4  5  1  0  0  0  0
  4 13  1  0  0  0  0
  5  6  2  0  0  0  0
  5 19  1  0  0  0  0
  6 27  1  0  0  0  0
  7  8  2  0  0  0  0
  7 12  1  0  0  0  0
  8  9  1  0  0  0  0
  8 16  1  0  0  0  0
  9 10  2  0  0  0  0
  9 15  1  0  0  0  0
 10 11  1  0  0  0  0
 10 28  1  0  0  0  0
 11 12  2  0  0  0  0
 11 23  1  0  0  0  0
 12 14  1  0  0  0  0
 13 29  1  0  0  0  0
 14 30  1  0  0  0  0
 15 31  1  0  0  0  0
 15 32  1  0  0  0  0
 15 33  1  0  0  0  0
 16 34  1  0  0  0  0
 16 35  1  0  0  0  0
 16 36  1  0  0  0  0
 17 37  1  0  0  0  0
 17 38  1  0  0  0  0
 17 39  1  0  0  0  0
 18 40  1  0  0  0  0
 18 41  1  0  0  0  0
 18 42  1  0  0  0  0
 19 20  1  0  0  0  0
 19 21  1  0  0  0  0
 19 22  1  0  0  0  0
 20 43  1  0  0  0  0
 20 44  1  0  0  0  0
 20 45  1  0  0  0  0
 21 46  1  0  0  0  0
 21 47  1  0  0  0  0
 21 48  1  0  0  0  0
 22 49  1  0  0  0  0
 22 50  1  0  0  0  0
 22 51  1  0  0  0  0
 23 24  1  0  0  0  0
 23 25  1  0  0  0  0
 23 26  1  0  0  0  0
 24 52  1  0  0  0  0
 24 53  1  0  0  0  0
 24 54  1  0  0  0  0
 25 55  1  0  0  0  0
 25 56  1  0  0  0  0
 25 57  1  0  0  0  0
 26 58  1  0  0  0  0
 26 59  1  0  0  0  0
 26 60  1  0  0  0  0
M  END
$$$$
