Title Card Required
 OpenBabel03192317513D

 24 25  0  0  1  0  0  0  0  0999 V2000
    1.2823    1.2662    0.3463 O   0  0  0  0  0  0  0  0  0  0  0  0
    0.7337    0.0552    0.1134 C   0  0  0  0  0  0  0  0  0  0  0  0
    1.4725   -0.9695    0.1104 N   0  0  0  0  0  0  0  0  0  0  0  0
    2.8332   -0.5001    0.3833 C   0  0  2  0  0  0  0  0  0  0  0  0
    2.6877    1.0416    0.4779 C   0  0  0  0  0  0  0  0  0  0  0  0
   -2.6875    1.0417   -0.4778 C   0  0  0  0  0  0  0  0  0  0  0  0
   -2.8331   -0.5000   -0.3833 C   0  0  1  0  0  0  0  0  0  0  0  0
   -1.4725   -0.9694   -0.1097 N   0  0  0  0  0  0  0  0  0  0  0  0
   -0.7336    0.0553   -0.1129 C   0  0  0  0  0  0  0  0  0  0  0  0
   -1.2820    1.2662   -0.3466 O   0  0  0  0  0  0  0  0  0  0  0  0
    3.8001   -0.9635   -0.6958 C   0  0  0  0  0  0  0  0  0  0  0  0
   -3.8007   -0.9634    0.6952 C   0  0  0  0  0  0  0  0  0  0  0  0
    3.1475   -0.9261    1.3503 H   0  0  0  0  0  0  0  0  0  0  0  0
    3.0236    1.4614    1.4351 H   0  0  0  0  0  0  0  0  0  0  0  0
    3.2049    1.5623   -0.3431 H   0  0  0  0  0  0  0  0  0  0  0  0
   -3.0237    1.4616   -1.4348 H   0  0  0  0  0  0  0  0  0  0  0  0
   -3.2044    1.5623    0.3435 H   0  0  0  0  0  0  0  0  0  0  0  0
   -3.1467   -0.9259   -1.3505 H   0  0  0  0  0  0  0  0  0  0  0  0
    4.8217   -0.6181   -0.4800 H   0  0  0  0  0  0  0  0  0  0  0  0
    3.8032   -2.0593   -0.7571 H   0  0  0  0  0  0  0  0  0  0  0  0
    3.4932   -0.5645   -1.6739 H   0  0  0  0  0  0  0  0  0  0  0  0
   -4.8221   -0.6179    0.4787 H   0  0  0  0  0  0  0  0  0  0  0  0
   -3.8040   -2.0592    0.7562 H   0  0  0  0  0  0  0  0  0  0  0  0
   -3.4944   -0.5646    1.6734 H   0  0  0  0  0  0  0  0  0  0  0  0
  1  2  1  0  0  0  0
  1  5  1  0  0  0  0
  2  3  2  0  0  0  0
  2  9  1  0  0  0  0
  3  4  1  0  0  0  0
  4  5  1  0  0  0  0
  4 11  1  0  0  0  0
  4 13  1  1  0  0  0
  5 14  1  0  0  0  0
  5 15  1  0  0  0  0
  6  7  1  0  0  0  0
  6 10  1  0  0  0  0
  6 16  1  0  0  0  0
  6 17  1  0  0  0  0
  7  8  1  0  0  0  0
  7 12  1  0  0  0  0
  7 18  1  6  0  0  0
  8  9  2  0  0  0  0
  9 10  1  0  0  0  0
 11 19  1  0  0  0  0
 11 20  1  0  0  0  0
 11 21  1  0  0  0  0
 12 22  1  0  0  0  0
 12 23  1  0  0  0  0
 12 24  1  0  0  0  0
M  END
$$$$
