Title Card Required
 OpenBabel03192317443D

 82 90  0  0  1  0  0  0  0  0999 V2000
   -0.0650   -1.3844   -1.0372 O   0  0  0  0  0  0  0  0  0  0  0  0
   -0.6693    0.1575   -1.3982 P   0  0  0  0  0  0  0  0  0  0  0  0
    0.6420    1.0255   -0.8310 O   0  0  0  0  0  0  0  0  0  0  0  0
    1.8483    0.7996   -1.4330 C   0  0  0  0  0  0  0  0  0  0  0  0
    2.5898   -0.3141   -1.0855 C   0  0  0  0  0  0  0  0  0  0  0  0
    2.1015   -1.2164   -0.0103 C   0  0  0  0  0  0  0  0  0  0  0  0
    0.8195   -1.7398   -0.0647 C   0  0  0  0  0  0  0  0  0  0  0  0
    2.3006    1.7405   -2.3904 C   0  0  0  0  0  0  0  0  0  0  0  0
    3.4978    1.5422   -3.0240 C   0  0  0  0  0  0  0  0  0  0  0  0
    4.2698    0.3763   -2.7643 C   0  0  0  0  0  0  0  0  0  0  0  0
    5.4830    0.1291   -3.4628 C   0  0  0  0  0  0  0  0  0  0  0  0
    6.2005   -1.0209   -3.2469 C   0  0  0  0  0  0  0  0  0  0  0  0
    5.7222   -1.9835   -2.3258 C   0  0  0  0  0  0  0  0  0  0  0  0
    4.5602   -1.7666   -1.6253 C   0  0  0  0  0  0  0  0  0  0  0  0
    3.8068   -0.5725   -1.8053 C   0  0  0  0  0  0  0  0  0  0  0  0
    0.3877   -2.7367    0.8486 C   0  0  0  0  0  0  0  0  0  0  0  0
    1.1957   -3.1250    1.8819 C   0  0  0  0  0  0  0  0  0  0  0  0
    2.4635   -2.5090    2.0718 C   0  0  0  0  0  0  0  0  0  0  0  0
    3.2655   -2.8175    3.2039 C   0  0  0  0  0  0  0  0  0  0  0  0
    4.4709   -2.1919    3.4062 C   0  0  0  0  0  0  0  0  0  0  0  0
    4.9225   -1.2245    2.4761 C   0  0  0  0  0  0  0  0  0  0  0  0
    4.1741   -0.9154    1.3656 C   0  0  0  0  0  0  0  0  0  0  0  0
    2.9244   -1.5532    1.1200 C   0  0  0  0  0  0  0  0  0  0  0  0
   -1.8053    0.5783   -0.2178 N   0  0  0  0  0  0  0  0  0  0  0  0
   -3.1978    0.7349   -0.6899 C   0  0  1  0  0  0  0  0  0  0  0  0
   -3.3145    1.4102   -2.0632 C   0  0  0  0  0  0  0  0  0  0  0  0
   -4.0353   -0.5436   -0.6693 C   0  0  0  0  0  0  0  0  0  0  0  0
   -3.4605   -1.7759   -0.8878 C   0  0  0  0  0  0  0  0  0  0  0  0
   -4.2338   -2.9621   -0.9104 C   0  0  0  0  0  0  0  0  0  0  0  0
   -5.5881   -2.9098   -0.7080 C   0  0  0  0  0  0  0  0  0  0  0  0
   -6.2293   -1.6628   -0.4797 C   0  0  0  0  0  0  0  0  0  0  0  0
   -7.6331   -1.5944   -0.2649 C   0  0  0  0  0  0  0  0  0  0  0  0
   -8.2590   -0.3933   -0.0452 C   0  0  0  0  0  0  0  0  0  0  0  0
   -7.4995    0.8004   -0.0307 C   0  0  0  0  0  0  0  0  0  0  0  0
   -6.1407    0.7663   -0.2343 C   0  0  0  0  0  0  0  0  0  0  0  0
   -5.4547   -0.4622   -0.4649 C   0  0  0  0  0  0  0  0  0  0  0  0
   -1.6801    0.7142    1.2602 C   0  0  1  0  0  0  0  0  0  0  0  0
   -2.1492   -0.5312    2.0088 C   0  0  0  0  0  0  0  0  0  0  0  0
   -0.3318    1.2405    1.7228 C   0  0  0  0  0  0  0  0  0  0  0  0
    0.5246    0.4664    2.4678 C   0  0  0  0  0  0  0  0  0  0  0  0
    1.7837    0.9559    2.8988 C   0  0  0  0  0  0  0  0  0  0  0  0
    2.1721    2.2286    2.5774 C   0  0  0  0  0  0  0  0  0  0  0  0
    1.3082    3.0786    1.8295 C   0  0  0  0  0  0  0  0  0  0  0  0
    1.6949    4.4042    1.4939 C   0  0  0  0  0  0  0  0  0  0  0  0
    0.8642    5.2210    0.7668 C   0  0  0  0  0  0  0  0  0  0  0  0
   -0.3976    4.7410    0.3440 C   0  0  0  0  0  0  0  0  0  0  0  0
   -0.7969    3.4620    0.6535 C   0  0  0  0  0  0  0  0  0  0  0  0
    0.0387    2.5916    1.4064 C   0  0  0  0  0  0  0  0  0  0  0  0
    1.6764    2.6134   -2.5837 H   0  0  0  0  0  0  0  0  0  0  0  0
    3.8662    2.2667   -3.7529 H   0  0  0  0  0  0  0  0  0  0  0  0
    5.8284    0.8721   -4.1849 H   0  0  0  0  0  0  0  0  0  0  0  0
    7.1281   -1.2024   -3.7915 H   0  0  0  0  0  0  0  0  0  0  0  0
    6.2772   -2.9106   -2.1747 H   0  0  0  0  0  0  0  0  0  0  0  0
    4.1985   -2.5221   -0.9282 H   0  0  0  0  0  0  0  0  0  0  0  0
   -0.5973   -3.1787    0.6914 H   0  0  0  0  0  0  0  0  0  0  0  0
    0.8666   -3.8926    2.5850 H   0  0  0  0  0  0  0  0  0  0  0  0
    2.8957   -3.5577    3.9168 H   0  0  0  0  0  0  0  0  0  0  0  0
    5.0761   -2.4319    4.2815 H   0  0  0  0  0  0  0  0  0  0  0  0
    5.8709   -0.7126    2.6464 H   0  0  0  0  0  0  0  0  0  0  0  0
    4.5273   -0.1533    0.6710 H   0  0  0  0  0  0  0  0  0  0  0  0
   -3.6466    1.4296    0.0364 H   0  0  0  0  0  0  0  0  0  0  0  0
   -2.9846    0.7456   -2.8707 H   0  0  0  0  0  0  0  0  0  0  0  0
   -4.3668    1.6664   -2.2493 H   0  0  0  0  0  0  0  0  0  0  0  0
   -2.7102    2.3292   -2.0922 H   0  0  0  0  0  0  0  0  0  0  0  0
   -2.3816   -1.8596   -1.0256 H   0  0  0  0  0  0  0  0  0  0  0  0
   -3.7381   -3.9180   -1.0863 H   0  0  0  0  0  0  0  0  0  0  0  0
   -6.1932   -3.8186   -0.7175 H   0  0  0  0  0  0  0  0  0  0  0  0
   -8.2060   -2.5241   -0.2785 H   0  0  0  0  0  0  0  0  0  0  0  0
   -9.3368   -0.3552    0.1182 H   0  0  0  0  0  0  0  0  0  0  0  0
   -7.9963    1.7559    0.1439 H   0  0  0  0  0  0  0  0  0  0  0  0
   -5.5885    1.7058   -0.2207 H   0  0  0  0  0  0  0  0  0  0  0  0
   -2.3960    1.5135    1.5171 H   0  0  0  0  0  0  0  0  0  0  0  0
   -1.5458   -1.4085    1.7429 H   0  0  0  0  0  0  0  0  0  0  0  0
   -2.0695   -0.3675    3.0924 H   0  0  0  0  0  0  0  0  0  0  0  0
   -3.1965   -0.7537    1.7693 H   0  0  0  0  0  0  0  0  0  0  0  0
    0.2568   -0.5612    2.7178 H   0  0  0  0  0  0  0  0  0  0  0  0
    2.4448    0.2986    3.4683 H   0  0  0  0  0  0  0  0  0  0  0  0
    3.1453    2.6116    2.8918 H   0  0  0  0  0  0  0  0  0  0  0  0
    2.6715    4.7615    1.8277 H   0  0  0  0  0  0  0  0  0  0  0  0
    1.1720    6.2368    0.5143 H   0  0  0  0  0  0  0  0  0  0  0  0
   -1.0568    5.3902   -0.2349 H   0  0  0  0  0  0  0  0  0  0  0  0
   -1.7644    3.1063    0.2976 H   0  0  0  0  0  0  0  0  0  0  0  0
  1  2  1  0  0  0  0
  1  7  1  0  0  0  0
  2  3  1  0  0  0  0
  2 24  1  0  0  0  0
  3  4  1  0  0  0  0
  4  5  2  0  0  0  0
  4  8  1  0  0  0  0
  5  6  1  0  0  0  0
  5 15  1  0  0  0  0
  6  7  2  0  0  0  0
  6 23  1  0  0  0  0
  7 16  1  0  0  0  0
  8  9  2  0  0  0  0
  8 49  1  0  0  0  0
  9 10  1  0  0  0  0
  9 50  1  0  0  0  0
 10 11  2  0  0  0  0
 10 15  1  0  0  0  0
 11 12  1  0  0  0  0
 11 51  1  0  0  0  0
 12 13  2  0  0  0  0
 12 52  1  0  0  0  0
 13 14  1  0  0  0  0
 13 53  1  0  0  0  0
 14 15  2  0  0  0  0
 14 54  1  0  0  0  0
 16 17  2  0  0  0  0
 16 55  1  0  0  0  0
 17 18  1  0  0  0  0
 17 56  1  0  0  0  0
 18 19  2  0  0  0  0
 18 23  1  0  0  0  0
 19 20  1  0  0  0  0
 19 57  1  0  0  0  0
 20 21  2  0  0  0  0
 20 58  1  0  0  0  0
 21 22  1  0  0  0  0
 21 59  1  0  0  0  0
 22 23  2  0  0  0  0
 22 60  1  0  0  0  0
 24 25  1  0  0  0  0
 24 37  1  0  0  0  0
 25 26  1  0  0  0  0
 25 27  1  0  0  0  0
 25 61  1  1  0  0  0
 26 62  1  0  0  0  0
 26 63  1  0  0  0  0
 26 64  1  0  0  0  0
 27 28  2  0  0  0  0
 27 36  1  0  0  0  0
 28 29  1  0  0  0  0
 28 65  1  0  0  0  0
 29 30  2  0  0  0  0
 29 66  1  0  0  0  0
 30 31  1  0  0  0  0
 30 67  1  0  0  0  0
 31 32  2  0  0  0  0
 31 36  1  0  0  0  0
 32 33  1  0  0  0  0
 32 68  1  0  0  0  0
 33 34  2  0  0  0  0
 33 69  1  0  0  0  0
 34 35  1  0  0  0  0
 34 70  1  0  0  0  0
 35 36  2  0  0  0  0
 35 71  1  0  0  0  0
 37 38  1  0  0  0  0
 37 39  1  0  0  0  0
 37 72  1  1  0  0  0
 38 73  1  0  0  0  0
 38 74  1  0  0  0  0
 38 75  1  0  0  0  0
 39 40  2  0  0  0  0
 39 48  1  0  0  0  0
 40 41  1  0  0  0  0
 40 76  1  0  0  0  0
 41 42  2  0  0  0  0
 41 77  1  0  0  0  0
 42 43  1  0  0  0  0
 42 78  1  0  0  0  0
 43 44  2  0  0  0  0
 43 48  1  0  0  0  0
 44 45  1  0  0  0  0
 44 79  1  0  0  0  0
 45 46  2  0  0  0  0
 45 80  1  0  0  0  0
 46 47  1  0  0  0  0
 46 81  1  0  0  0  0
 47 48  2  0  0  0  0
 47 82  1  0  0  0  0
M  END
$$$$
