Title Card Required
 OpenBabel03192317563D

 50 54  0  0  0  0  0  0  0  0999 V2000
    1.1715   -0.6318   -1.7216 O   0  0  0  0  0  0  0  0  0  0  0  0
    2.1244   -1.5931   -0.7072 P   0  0  0  0  0  0  0  0  0  0  0  0
    1.1351   -1.4795    0.6517 O   0  0  0  0  0  0  0  0  0  0  0  0
   -0.2098   -1.7049    0.5231 C   0  0  0  0  0  0  0  0  0  0  0  0
   -1.0283   -0.7227   -0.0063 C   0  0  0  0  0  0  0  0  0  0  0  0
   -0.4215    0.5718   -0.4185 C   0  0  0  0  0  0  0  0  0  0  0  0
    0.6500    0.5542   -1.2952 C   0  0  0  0  0  0  0  0  0  0  0  0
   -0.7203   -2.9476    0.9697 C   0  0  0  0  0  0  0  0  0  0  0  0
   -2.0608   -3.2090    0.8698 C   0  0  0  0  0  0  0  0  0  0  0  0
   -2.9418   -2.2599    0.2831 C   0  0  0  0  0  0  0  0  0  0  0  0
   -4.3260   -2.5422    0.1245 C   0  0  0  0  0  0  0  0  0  0  0  0
   -5.1637   -1.6431   -0.4865 C   0  0  0  0  0  0  0  0  0  0  0  0
   -4.6452   -0.4199   -0.9767 C   0  0  0  0  0  0  0  0  0  0  0  0
   -3.3143   -0.1129   -0.8279 C   0  0  0  0  0  0  0  0  0  0  0  0
   -2.4230   -1.0135   -0.1784 C   0  0  0  0  0  0  0  0  0  0  0  0
    1.2513    1.7475   -1.7667 C   0  0  0  0  0  0  0  0  0  0  0  0
    0.7943    2.9615   -1.3290 C   0  0  0  0  0  0  0  0  0  0  0  0
   -0.2588    3.0381   -0.3763 C   0  0  0  0  0  0  0  0  0  0  0  0
   -0.7045    4.2907    0.1269 C   0  0  0  0  0  0  0  0  0  0  0  0
   -1.6911    4.3580    1.0786 C   0  0  0  0  0  0  0  0  0  0  0  0
   -2.2686    3.1653    1.5776 C   0  0  0  0  0  0  0  0  0  0  0  0
   -1.8685    1.9400    1.1021 C   0  0  0  0  0  0  0  0  0  0  0  0
   -0.8649    1.8358    0.0968 C   0  0  0  0  0  0  0  0  0  0  0  0
    3.3344   -0.6096   -0.0868 N   0  0  0  0  0  0  0  0  0  0  0  0
    4.6334   -0.6743   -0.7472 C   0  0  0  0  0  0  0  0  0  0  0  0
    5.7989   -0.9685    0.1877 C   0  0  0  0  0  0  0  0  0  0  0  0
    3.1485    0.4289    0.9322 C   0  0  0  0  0  0  0  0  0  0  0  0
    3.3651   -0.0695    2.3573 C   0  0  0  0  0  0  0  0  0  0  0  0
   -0.0199   -3.6665    1.3956 H   0  0  0  0  0  0  0  0  0  0  0  0
   -2.4671   -4.1586    1.2235 H   0  0  0  0  0  0  0  0  0  0  0  0
   -4.7074   -3.4974    0.4920 H   0  0  0  0  0  0  0  0  0  0  0  0
   -6.2236   -1.8712   -0.6070 H   0  0  0  0  0  0  0  0  0  0  0  0
   -5.3080    0.2834   -1.4830 H   0  0  0  0  0  0  0  0  0  0  0  0
   -2.9259    0.8278   -1.2187 H   0  0  0  0  0  0  0  0  0  0  0  0
    2.0723    1.6576   -2.4788 H   0  0  0  0  0  0  0  0  0  0  0  0
    1.2444    3.8875   -1.6925 H   0  0  0  0  0  0  0  0  0  0  0  0
   -0.2379    5.2008   -0.2562 H   0  0  0  0  0  0  0  0  0  0  0  0
   -2.0240    5.3244    1.4597 H   0  0  0  0  0  0  0  0  0  0  0  0
   -3.0357    3.2205    2.3515 H   0  0  0  0  0  0  0  0  0  0  0  0
   -2.3142    1.0287    1.5012 H   0  0  0  0  0  0  0  0  0  0  0  0
    4.5780   -1.4602   -1.5178 H   0  0  0  0  0  0  0  0  0  0  0  0
    4.8210    0.2731   -1.2859 H   0  0  0  0  0  0  0  0  0  0  0  0
    5.6252   -1.9050    0.7369 H   0  0  0  0  0  0  0  0  0  0  0  0
    6.7299   -1.0665   -0.3883 H   0  0  0  0  0  0  0  0  0  0  0  0
    5.9431   -0.1601    0.9185 H   0  0  0  0  0  0  0  0  0  0  0  0
    3.8417    1.2542    0.6946 H   0  0  0  0  0  0  0  0  0  0  0  0
    2.1340    0.8422    0.8506 H   0  0  0  0  0  0  0  0  0  0  0  0
    4.3785   -0.4672    2.5018 H   0  0  0  0  0  0  0  0  0  0  0  0
    3.2104    0.7495    3.0746 H   0  0  0  0  0  0  0  0  0  0  0  0
    2.6442   -0.8668    2.5789 H   0  0  0  0  0  0  0  0  0  0  0  0
  1  2  1  0  0  0  0
  1  7  1  0  0  0  0
  2  3  1  0  0  0  0
  2 24  1  0  0  0  0
  3  4  1  0  0  0  0
  4  5  2  0  0  0  0
  4  8  1  0  0  0  0
  5  6  1  0  0  0  0
  5 15  1  0  0  0  0
  6  7  2  0  0  0  0
  6 23  1  0  0  0  0
  7 16  1  0  0  0  0
  8  9  2  0  0  0  0
  8 29  1  0  0  0  0
  9 10  1  0  0  0  0
  9 30  1  0  0  0  0
 10 11  2  0  0  0  0
 10 15  1  0  0  0  0
 11 12  1  0  0  0  0
 11 31  1  0  0  0  0
 12 13  2  0  0  0  0
 12 32  1  0  0  0  0
 13 14  1  0  0  0  0
 13 33  1  0  0  0  0
 14 15  2  0  0  0  0
 14 34  1  0  0  0  0
 16 17  2  0  0  0  0
 16 35  1  0  0  0  0
 17 18  1  0  0  0  0
 17 36  1  0  0  0  0
 18 19  2  0  0  0  0
 18 23  1  0  0  0  0
 19 20  1  0  0  0  0
 19 37  1  0  0  0  0
 20 21  2  0  0  0  0
 20 38  1  0  0  0  0
 21 22  1  0  0  0  0
 21 39  1  0  0  0  0
 22 23  2  0  0  0  0
 22 40  1  0  0  0  0
 24 25  1  0  0  0  0
 24 27  1  0  0  0  0
 25 26  1  0  0  0  0
 25 41  1  0  0  0  0
 25 42  1  0  0  0  0
 26 43  1  0  0  0  0
 26 44  1  0  0  0  0
 26 45  1  0  0  0  0
 27 28  1  0  0  0  0
 27 46  1  0  0  0  0
 27 47  1  0  0  0  0
 28 48  1  0  0  0  0
 28 49  1  0  0  0  0
 28 50  1  0  0  0  0
M  END
$$$$
