Title Card Required
 OpenBabel03192317553D

178183  0  0  0  0  0  0  0  0999 V2000
   -0.0335   -2.5235    1.8204 C   0  0  0  0  0  0  0  0  0  0  0  0
    0.8708   -1.9944    2.7726 C   0  0  0  0  0  0  0  0  0  0  0  0
    0.5738   -2.0558    4.1382 C   0  0  0  0  0  0  0  0  0  0  0  0
   -0.6360   -2.5864    4.5815 C   0  0  0  0  0  0  0  0  0  0  0  0
   -1.5243   -3.1131    3.6627 C   0  0  0  0  0  0  0  0  0  0  0  0
   -1.2300   -3.1084    2.2887 C   0  0  0  0  0  0  0  0  0  0  0  0
    0.2628   -2.3985    0.3537 C   0  0  0  0  0  0  0  0  0  0  0  0
   -0.1842   -1.2444   -0.3328 C   0  0  0  0  0  0  0  0  0  0  0  0
    0.0830   -1.0801   -1.6941 C   0  0  0  0  0  0  0  0  0  0  0  0
    0.7676   -2.0737   -2.3932 C   0  0  0  0  0  0  0  0  0  0  0  0
    1.2053   -3.2111   -1.7369 C   0  0  0  0  0  0  0  0  0  0  0  0
    0.9610   -3.3857   -0.3693 C   0  0  0  0  0  0  0  0  0  0  0  0
    1.3757   -4.5955    0.0861 O   0  0  0  0  0  0  0  0  0  0  0  0
    1.4612   -4.9751    1.4406 C   0  0  0  0  0  0  0  0  0  0  0  0
   -2.2070   -3.6857    1.5488 O   0  0  0  0  0  0  0  0  0  0  0  0
   -2.0691   -4.1243    0.2138 C   0  0  0  0  0  0  0  0  0  0  0  0
   -1.2877   -0.0733    0.6081 P   0  0  0  0  0  0  0  0  0  0  0  0
   -1.1640    1.4607   -0.4013 C   0  0  0  0  0  0  0  0  0  0  0  0
    0.0891    2.0204   -0.6690 C   0  0  0  0  0  0  0  0  0  0  0  0
    0.2338    3.1835   -1.4295 C   0  0  0  0  0  0  0  0  0  0  0  0
   -0.9229    3.8490   -1.8922 C   0  0  0  0  0  0  0  0  0  0  0  0
   -2.1954    3.3515   -1.5489 C   0  0  0  0  0  0  0  0  0  0  0  0
   -2.2955    2.1569   -0.8267 C   0  0  0  0  0  0  0  0  0  0  0  0
   -0.7533    5.0122   -2.7071 N   0  0  0  0  0  0  0  0  0  0  0  0
   -0.9894    6.2955   -2.0876 C   0  0  0  0  0  0  0  0  0  0  0  0
   -1.1309    4.9239   -4.0974 C   0  0  0  0  0  0  0  0  0  0  0  0
   -3.4794    4.0758   -1.9179 C   0  0  0  0  0  0  0  0  0  0  0  0
   -4.4222    3.1908   -2.7380 C   0  0  0  0  0  0  0  0  0  0  0  0
   -4.1721    4.6052   -0.6577 C   0  0  0  0  0  0  0  0  0  0  0  0
    1.6501    3.6103   -1.7828 C   0  0  0  0  0  0  0  0  0  0  0  0
    1.9793    3.2545   -3.2370 C   0  0  0  0  0  0  0  0  0  0  0  0
    2.0189    5.0657   -1.4899 C   0  0  0  0  0  0  0  0  0  0  0  0
   -2.9225   -0.7444    0.0523 C   0  0  0  0  0  0  0  0  0  0  0  0
   -3.8191   -1.1667    1.0343 C   0  0  0  0  0  0  0  0  0  0  0  0
   -5.0490   -1.7425    0.7013 C   0  0  0  0  0  0  0  0  0  0  0  0
   -5.3889   -1.8911   -0.6596 C   0  0  0  0  0  0  0  0  0  0  0  0
   -4.4794   -1.4987   -1.6645 C   0  0  0  0  0  0  0  0  0  0  0  0
   -3.2697   -0.9136   -1.2896 C   0  0  0  0  0  0  0  0  0  0  0  0
   -6.6626   -2.4599   -0.9680 N   0  0  0  0  0  0  0  0  0  0  0  0
   -7.6353   -1.6384   -1.6486 C   0  0  0  0  0  0  0  0  0  0  0  0
   -6.6943   -3.8669   -1.2860 C   0  0  0  0  0  0  0  0  0  0  0  0
   -4.7452   -1.7421   -3.1413 C   0  0  0  0  0  0  0  0  0  0  0  0
   -4.8732   -0.4265   -3.9135 C   0  0  0  0  0  0  0  0  0  0  0  0
   -3.6599   -2.6377   -3.7472 C   0  0  0  0  0  0  0  0  0  0  0  0
   -6.0151   -2.1945    1.7828 C   0  0  0  0  0  0  0  0  0  0  0  0
   -5.3150   -2.5669    3.0876 C   0  0  0  0  0  0  0  0  0  0  0  0
   -7.0930   -1.1286    2.0076 C   0  0  0  0  0  0  0  0  0  0  0  0
    2.5099   -1.1549    2.5164 P   0  0  0  0  0  0  0  0  0  0  0  0
    3.1900   -1.5290    0.8420 C   0  0  0  0  0  0  0  0  0  0  0  0
    3.1413   -0.6652   -0.2553 C   0  0  0  0  0  0  0  0  0  0  0  0
    3.8660   -0.9039   -1.4249 C   0  0  0  0  0  0  0  0  0  0  0  0
    4.6010   -2.1046   -1.5367 C   0  0  0  0  0  0  0  0  0  0  0  0
    4.6315   -3.0115   -0.4575 C   0  0  0  0  0  0  0  0  0  0  0  0
    3.9725   -2.6810    0.7293 C   0  0  0  0  0  0  0  0  0  0  0  0
    5.3018   -2.3580   -2.7575 N   0  0  0  0  0  0  0  0  0  0  0  0
    4.6545   -3.2416   -3.6974 C   0  0  0  0  0  0  0  0  0  0  0  0
    6.7445   -2.4152   -2.7412 C   0  0  0  0  0  0  0  0  0  0  0  0
    5.4156   -4.3138   -0.5187 C   0  0  0  0  0  0  0  0  0  0  0  0
    6.7026   -4.2200    0.3095 C   0  0  0  0  0  0  0  0  0  0  0  0
    4.5711   -5.5095   -0.0718 C   0  0  0  0  0  0  0  0  0  0  0  0
    3.9261    0.2263   -2.4478 C   0  0  0  0  0  0  0  0  0  0  0  0
    5.3137    0.8779   -2.4370 C   0  0  0  0  0  0  0  0  0  0  0  0
    3.5150   -0.1078   -3.8830 C   0  0  0  0  0  0  0  0  0  0  0  0
    2.0121    0.6227    2.4275 C   0  0  0  0  0  0  0  0  0  0  0  0
    0.8188    1.1002    2.9678 C   0  0  0  0  0  0  0  0  0  0  0  0
    0.5439    2.4720    3.0452 C   0  0  0  0  0  0  0  0  0  0  0  0
    1.4663    3.3939    2.5185 C   0  0  0  0  0  0  0  0  0  0  0  0
    2.6941    2.9305    1.9820 C   0  0  0  0  0  0  0  0  0  0  0  0
    2.9525    1.5607    1.9754 C   0  0  0  0  0  0  0  0  0  0  0  0
    1.2046    4.8015    2.5043 N   0  0  0  0  0  0  0  0  0  0  0  0
    1.3742    5.5372    3.7379 C   0  0  0  0  0  0  0  0  0  0  0  0
    0.0947    5.2633    1.6986 C   0  0  0  0  0  0  0  0  0  0  0  0
    3.7333    3.9065    1.4490 C   0  0  0  0  0  0  0  0  0  0  0  0
    4.5412    4.5349    2.5904 C   0  0  0  0  0  0  0  0  0  0  0  0
    4.6910    3.2881    0.4298 C   0  0  0  0  0  0  0  0  0  0  0  0
   -0.7227    2.9147    3.7632 C   0  0  0  0  0  0  0  0  0  0  0  0
   -1.9958    2.4283    3.0680 C   0  0  0  0  0  0  0  0  0  0  0  0
   -0.6911    2.4637    5.2277 C   0  0  0  0  0  0  0  0  0  0  0  0
    1.2993   -1.6725    4.8593 H   0  0  0  0  0  0  0  0  0  0  0  0
   -0.8707   -2.6110    5.6467 H   0  0  0  0  0  0  0  0  0  0  0  0
   -2.4654   -3.5674    3.9737 H   0  0  0  0  0  0  0  0  0  0  0  0
   -0.2536   -0.1810   -2.2136 H   0  0  0  0  0  0  0  0  0  0  0  0
    0.9461   -1.9668   -3.4644 H   0  0  0  0  0  0  0  0  0  0  0  0
    1.7371   -4.0094   -2.2566 H   0  0  0  0  0  0  0  0  0  0  0  0
    0.4705   -5.1059    1.8989 H   0  0  0  0  0  0  0  0  0  0  0  0
    1.9867   -5.9380    1.4390 H   0  0  0  0  0  0  0  0  0  0  0  0
    2.0331   -4.2495    2.0361 H   0  0  0  0  0  0  0  0  0  0  0  0
   -2.0310   -3.2890   -0.5000 H   0  0  0  0  0  0  0  0  0  0  0  0
   -1.1784   -4.7585    0.0859 H   0  0  0  0  0  0  0  0  0  0  0  0
   -2.9668   -4.7229    0.0119 H   0  0  0  0  0  0  0  0  0  0  0  0
    0.9898    1.5236   -0.2965 H   0  0  0  0  0  0  0  0  0  0  0  0
   -3.2879    1.7618   -0.5971 H   0  0  0  0  0  0  0  0  0  0  0  0
   -0.4492    7.0821   -2.6418 H   0  0  0  0  0  0  0  0  0  0  0  0
   -2.0587    6.5916   -2.0497 H   0  0  0  0  0  0  0  0  0  0  0  0
   -0.6022    6.2858   -1.0594 H   0  0  0  0  0  0  0  0  0  0  0  0
   -0.8855    3.9246   -4.4835 H   0  0  0  0  0  0  0  0  0  0  0  0
   -2.2072    5.1108   -4.2950 H   0  0  0  0  0  0  0  0  0  0  0  0
   -0.5582    5.6633   -4.6827 H   0  0  0  0  0  0  0  0  0  0  0  0
   -3.2153    4.9412   -2.5374 H   0  0  0  0  0  0  0  0  0  0  0  0
   -4.7382    2.3057   -2.1637 H   0  0  0  0  0  0  0  0  0  0  0  0
   -5.3277    3.7483   -3.0206 H   0  0  0  0  0  0  0  0  0  0  0  0
   -3.9332    2.8370   -3.6576 H   0  0  0  0  0  0  0  0  0  0  0  0
   -3.4970    5.2534   -0.0793 H   0  0  0  0  0  0  0  0  0  0  0  0
   -5.0702    5.1843   -0.9202 H   0  0  0  0  0  0  0  0  0  0  0  0
   -4.4818    3.7765   -0.0023 H   0  0  0  0  0  0  0  0  0  0  0  0
    2.2934    2.9866   -1.1401 H   0  0  0  0  0  0  0  0  0  0  0  0
    1.4218    3.9080   -3.9241 H   0  0  0  0  0  0  0  0  0  0  0  0
    3.0553    3.3893   -3.4338 H   0  0  0  0  0  0  0  0  0  0  0  0
    1.7163    2.2096   -3.4613 H   0  0  0  0  0  0  0  0  0  0  0  0
    3.1139    5.1777   -1.5273 H   0  0  0  0  0  0  0  0  0  0  0  0
    1.5795    5.7444   -2.2315 H   0  0  0  0  0  0  0  0  0  0  0  0
    1.6875    5.3734   -0.4870 H   0  0  0  0  0  0  0  0  0  0  0  0
   -3.5356   -1.0638    2.0842 H   0  0  0  0  0  0  0  0  0  0  0  0
   -2.5673   -0.6039   -2.0689 H   0  0  0  0  0  0  0  0  0  0  0  0
   -7.5776   -1.6768   -2.7563 H   0  0  0  0  0  0  0  0  0  0  0  0
   -8.6541   -1.9516   -1.3635 H   0  0  0  0  0  0  0  0  0  0  0  0
   -7.5081   -0.5901   -1.3435 H   0  0  0  0  0  0  0  0  0  0  0  0
   -6.3760   -4.1037   -2.3237 H   0  0  0  0  0  0  0  0  0  0  0  0
   -6.0344   -4.4170   -0.5990 H   0  0  0  0  0  0  0  0  0  0  0  0
   -7.7174   -4.2546   -1.1549 H   0  0  0  0  0  0  0  0  0  0  0  0
   -5.6986   -2.2784   -3.2299 H   0  0  0  0  0  0  0  0  0  0  0  0
   -3.9403    0.1559   -3.8534 H   0  0  0  0  0  0  0  0  0  0  0  0
   -5.0855   -0.6163   -4.9764 H   0  0  0  0  0  0  0  0  0  0  0  0
   -5.6827    0.1966   -3.5057 H   0  0  0  0  0  0  0  0  0  0  0  0
   -3.5856   -3.5909   -3.2027 H   0  0  0  0  0  0  0  0  0  0  0  0
   -3.8824   -2.8583   -4.8020 H   0  0  0  0  0  0  0  0  0  0  0  0
   -2.6731   -2.1513   -3.7041 H   0  0  0  0  0  0  0  0  0  0  0  0
   -6.5224   -3.0919    1.4015 H   0  0  0  0  0  0  0  0  0  0  0  0
   -4.9205   -1.6810    3.6098 H   0  0  0  0  0  0  0  0  0  0  0  0
   -6.0234   -3.0579    3.7707 H   0  0  0  0  0  0  0  0  0  0  0  0
   -4.4771   -3.2513    2.8906 H   0  0  0  0  0  0  0  0  0  0  0  0
   -7.6596   -0.9512    1.0823 H   0  0  0  0  0  0  0  0  0  0  0  0
   -7.7991   -1.4439    2.7906 H   0  0  0  0  0  0  0  0  0  0  0  0
   -6.6339   -0.1776    2.3189 H   0  0  0  0  0  0  0  0  0  0  0  0
    2.5545    0.2509   -0.1920 H   0  0  0  0  0  0  0  0  0  0  0  0
    4.0780   -3.3431    1.5947 H   0  0  0  0  0  0  0  0  0  0  0  0
    5.0789   -3.0888   -4.7038 H   0  0  0  0  0  0  0  0  0  0  0  0
    4.7587   -4.3194   -3.4490 H   0  0  0  0  0  0  0  0  0  0  0  0
    3.5810   -3.0085   -3.7450 H   0  0  0  0  0  0  0  0  0  0  0  0
    7.1314   -1.7242   -1.9791 H   0  0  0  0  0  0  0  0  0  0  0  0
    7.1652   -3.4208   -2.5359 H   0  0  0  0  0  0  0  0  0  0  0  0
    7.1394   -2.0896   -3.7192 H   0  0  0  0  0  0  0  0  0  0  0  0
    5.6964   -4.4854   -1.5658 H   0  0  0  0  0  0  0  0  0  0  0  0
    6.4650   -4.0483    1.3710 H   0  0  0  0  0  0  0  0  0  0  0  0
    7.2835   -5.1519    0.2382 H   0  0  0  0  0  0  0  0  0  0  0  0
    7.3381   -3.3890   -0.0275 H   0  0  0  0  0  0  0  0  0  0  0  0
    3.6204   -5.5590   -0.6219 H   0  0  0  0  0  0  0  0  0  0  0  0
    5.1245   -6.4481   -0.2262 H   0  0  0  0  0  0  0  0  0  0  0  0
    4.3316   -5.4412    1.0007 H   0  0  0  0  0  0  0  0  0  0  0  0
    3.2057    0.9800   -2.0817 H   0  0  0  0  0  0  0  0  0  0  0  0
    6.0551    0.1918   -2.8712 H   0  0  0  0  0  0  0  0  0  0  0  0
    5.3116    1.8029   -3.0346 H   0  0  0  0  0  0  0  0  0  0  0  0
    5.6311    1.1291   -1.4146 H   0  0  0  0  0  0  0  0  0  0  0  0
    2.5337   -0.5977   -3.9178 H   0  0  0  0  0  0  0  0  0  0  0  0
    3.4469    0.8216   -4.4689 H   0  0  0  0  0  0  0  0  0  0  0  0
    4.2570   -0.7569   -4.3646 H   0  0  0  0  0  0  0  0  0  0  0  0
    0.0755    0.3972    3.3474 H   0  0  0  0  0  0  0  0  0  0  0  0
    3.9103    1.2068    1.5900 H   0  0  0  0  0  0  0  0  0  0  0  0
    1.7148    6.5663    3.5297 H   0  0  0  0  0  0  0  0  0  0  0  0
    0.4378    5.6160    4.3296 H   0  0  0  0  0  0  0  0  0  0  0  0
    2.1254    5.0491    4.3714 H   0  0  0  0  0  0  0  0  0  0  0  0
    0.3123    6.2696    1.2975 H   0  0  0  0  0  0  0  0  0  0  0  0
   -0.0620    4.5800    0.8513 H   0  0  0  0  0  0  0  0  0  0  0  0
   -0.8613    5.3386    2.2570 H   0  0  0  0  0  0  0  0  0  0  0  0
    3.1738    4.7161    0.9599 H   0  0  0  0  0  0  0  0  0  0  0  0
    5.0544    3.7538    3.1729 H   0  0  0  0  0  0  0  0  0  0  0  0
    5.3036    5.2207    2.1907 H   0  0  0  0  0  0  0  0  0  0  0  0
    3.9000    5.1072    3.2712 H   0  0  0  0  0  0  0  0  0  0  0  0
    4.1607    2.7205   -0.3496 H   0  0  0  0  0  0  0  0  0  0  0  0
    5.2782    4.0781   -0.0615 H   0  0  0  0  0  0  0  0  0  0  0  0
    5.4072    2.6031    0.9100 H   0  0  0  0  0  0  0  0  0  0  0  0
   -0.7417    4.0105    3.7663 H   0  0  0  0  0  0  0  0  0  0  0  0
   -2.0525    1.3292    3.0795 H   0  0  0  0  0  0  0  0  0  0  0  0
   -2.8860    2.8233    3.5809 H   0  0  0  0  0  0  0  0  0  0  0  0
   -2.0261    2.7500    2.0152 H   0  0  0  0  0  0  0  0  0  0  0  0
    0.2044    2.8444    5.7403 H   0  0  0  0  0  0  0  0  0  0  0  0
   -1.5799    2.8305    5.7632 H   0  0  0  0  0  0  0  0  0  0  0  0
   -0.6828    1.3653    5.3041 H   0  0  0  0  0  0  0  0  0  0  0  0
  1  2  2  0  0  0  0
  1  6  1  0  0  0  0
  1  7  1  0  0  0  0
  2  3  1  0  0  0  0
  2 48  1  0  0  0  0
  3  4  2  0  0  0  0
  3 79  1  0  0  0  0
  4  5  1  0  0  0  0
  4 80  1  0  0  0  0
  5  6  2  0  0  0  0
  5 81  1  0  0  0  0
  6 15  1  0  0  0  0
  7  8  2  0  0  0  0
  7 12  1  0  0  0  0
  8  9  1  0  0  0  0
  8 17  1  0  0  0  0
  9 10  2  0  0  0  0
  9 82  1  0  0  0  0
 10 11  1  0  0  0  0
 10 83  1  0  0  0  0
 11 12  2  0  0  0  0
 11 84  1  0  0  0  0
 12 13  1  0  0  0  0
 13 14  1  0  0  0  0
 14 85  1  0  0  0  0
 14 86  1  0  0  0  0
 14 87  1  0  0  0  0
 15 16  1  0  0  0  0
 16 88  1  0  0  0  0
 16 89  1  0  0  0  0
 16 90  1  0  0  0  0
 17 18  1  0  0  0  0
 17 33  1  0  0  0  0
 18 19  2  0  0  0  0
 18 23  1  0  0  0  0
 19 20  1  0  0  0  0
 19 91  1  0  0  0  0
 20 21  2  0  0  0  0
 20 30  1  0  0  0  0
 21 22  1  0  0  0  0
 21 24  1  0  0  0  0
 22 23  2  0  0  0  0
 22 27  1  0  0  0  0
 23 92  1  0  0  0  0
 24 25  1  0  0  0  0
 24 26  1  0  0  0  0
 25 93  1  0  0  0  0
 25 94  1  0  0  0  0
 25 95  1  0  0  0  0
 26 96  1  0  0  0  0
 26 97  1  0  0  0  0
 26 98  1  0  0  0  0
 27 28  1  0  0  0  0
 27 29  1  0  0  0  0
 27 99  1  0  0  0  0
 28100  1  0  0  0  0
 28101  1  0  0  0  0
 28102  1  0  0  0  0
 29103  1  0  0  0  0
 29104  1  0  0  0  0
 29105  1  0  0  0  0
 30 31  1  0  0  0  0
 30 32  1  0  0  0  0
 30106  1  0  0  0  0
 31107  1  0  0  0  0
 31108  1  0  0  0  0
 31109  1  0  0  0  0
 32110  1  0  0  0  0
 32111  1  0  0  0  0
 32112  1  0  0  0  0
 33 34  2  0  0  0  0
 33 38  1  0  0  0  0
 34 35  1  0  0  0  0
 34113  1  0  0  0  0
 35 36  2  0  0  0  0
 35 45  1  0  0  0  0
 36 37  1  0  0  0  0
 36 39  1  0  0  0  0
 37 38  2  0  0  0  0
 37 42  1  0  0  0  0
 38114  1  0  0  0  0
 39 40  1  0  0  0  0
 39 41  1  0  0  0  0
 40115  1  0  0  0  0
 40116  1  0  0  0  0
 40117  1  0  0  0  0
 41118  1  0  0  0  0
 41119  1  0  0  0  0
 41120  1  0  0  0  0
 42 43  1  0  0  0  0
 42 44  1  0  0  0  0
 42121  1  0  0  0  0
 43122  1  0  0  0  0
 43123  1  0  0  0  0
 43124  1  0  0  0  0
 44125  1  0  0  0  0
 44126  1  0  0  0  0
 44127  1  0  0  0  0
 45 46  1  0  0  0  0
 45 47  1  0  0  0  0
 45128  1  0  0  0  0
 46129  1  0  0  0  0
 46130  1  0  0  0  0
 46131  1  0  0  0  0
 47132  1  0  0  0  0
 47133  1  0  0  0  0
 47134  1  0  0  0  0
 48 49  1  0  0  0  0
 48 64  1  0  0  0  0
 49 50  2  0  0  0  0
 49 54  1  0  0  0  0
 50 51  1  0  0  0  0
 50135  1  0  0  0  0
 51 52  2  0  0  0  0
 51 61  1  0  0  0  0
 52 53  1  0  0  0  0
 52 55  1  0  0  0  0
 53 54  2  0  0  0  0
 53 58  1  0  0  0  0
 54136  1  0  0  0  0
 55 56  1  0  0  0  0
 55 57  1  0  0  0  0
 56137  1  0  0  0  0
 56138  1  0  0  0  0
 56139  1  0  0  0  0
 57140  1  0  0  0  0
 57141  1  0  0  0  0
 57142  1  0  0  0  0
 58 59  1  0  0  0  0
 58 60  1  0  0  0  0
 58143  1  0  0  0  0
 59144  1  0  0  0  0
 59145  1  0  0  0  0
 59146  1  0  0  0  0
 60147  1  0  0  0  0
 60148  1  0  0  0  0
 60149  1  0  0  0  0
 61 62  1  0  0  0  0
 61 63  1  0  0  0  0
 61150  1  0  0  0  0
 62151  1  0  0  0  0
 62152  1  0  0  0  0
 62153  1  0  0  0  0
 63154  1  0  0  0  0
 63155  1  0  0  0  0
 63156  1  0  0  0  0
 64 65  2  0  0  0  0
 64 69  1  0  0  0  0
 65 66  1  0  0  0  0
 65157  1  0  0  0  0
 66 67  2  0  0  0  0
 66 76  1  0  0  0  0
 67 68  1  0  0  0  0
 67 70  1  0  0  0  0
 68 69  2  0  0  0  0
 68 73  1  0  0  0  0
 69158  1  0  0  0  0
 70 71  1  0  0  0  0
 70 72  1  0  0  0  0
 71159  1  0  0  0  0
 71160  1  0  0  0  0
 71161  1  0  0  0  0
 72162  1  0  0  0  0
 72163  1  0  0  0  0
 72164  1  0  0  0  0
 73 74  1  0  0  0  0
 73 75  1  0  0  0  0
 73165  1  0  0  0  0
 74166  1  0  0  0  0
 74167  1  0  0  0  0
 74168  1  0  0  0  0
 75169  1  0  0  0  0
 75170  1  0  0  0  0
 75171  1  0  0  0  0
 76 77  1  0  0  0  0
 76 78  1  0  0  0  0
 76172  1  0  0  0  0
 77173  1  0  0  0  0
 77174  1  0  0  0  0
 77175  1  0  0  0  0
 78176  1  0  0  0  0
 78177  1  0  0  0  0
 78178  1  0  0  0  0
M  END
$$$$
