Title Card Required
 OpenBabel03192317493D

 49 55  0  0  1  0  0  0  0  0999 V2000
    1.1148    2.7800    0.4378 C   0  0  0  0  0  0  0  0  0  0  0  0
    1.0577    1.3817    0.4208 C   0  0  0  0  0  0  0  0  0  0  0  0
    0.0001    0.6958    0.0002 N   0  0  0  0  0  0  0  0  0  0  0  0
   -1.0575    1.3818   -0.4206 C   0  0  0  0  0  0  0  0  0  0  0  0
   -1.1145    2.7801   -0.4377 C   0  0  0  0  0  0  0  0  0  0  0  0
    0.0002    3.4873    0.0000 C   0  0  0  0  0  0  0  0  0  0  0  0
    2.2375    0.6142    0.8951 C   0  0  0  0  0  0  0  0  0  0  0  0
   -2.2374    0.6144   -0.8949 C   0  0  0  0  0  0  0  0  0  0  0  0
    2.1198   -0.7257    0.9223 O   0  0  0  0  0  0  0  0  0  0  0  0
    3.3272   -1.2407    1.4963 C   0  0  2  0  0  0  0  0  0  0  0  0
    4.2280    0.0291    1.5797 C   0  0  2  0  0  0  0  0  0  0  0  0
    3.3303    1.1410    1.2735 N   0  0  0  0  0  0  0  0  0  0  0  0
   -3.3302    1.1412   -1.2731 N   0  0  0  0  0  0  0  0  0  0  0  0
   -4.2279    0.0294   -1.5795 C   0  0  1  0  0  0  0  0  0  0  0  0
   -3.3271   -1.2404   -1.4962 C   0  0  1  0  0  0  0  0  0  0  0  0
   -2.1197   -0.7256   -0.9223 O   0  0  0  0  0  0  0  0  0  0  0  0
   -4.0102   -2.2406   -0.5554 C   0  0  0  0  0  0  0  0  0  0  0  0
   -5.1118   -1.4426    0.1012 C   0  0  0  0  0  0  0  0  0  0  0  0
   -5.2583   -0.1868   -0.4910 C   0  0  0  0  0  0  0  0  0  0  0  0
    5.2583   -0.1869    0.4911 C   0  0  0  0  0  0  0  0  0  0  0  0
    5.1117   -1.4426   -0.1013 C   0  0  0  0  0  0  0  0  0  0  0  0
    4.0103   -2.2408    0.5553 C   0  0  0  0  0  0  0  0  0  0  0  0
   -5.9455   -1.8220    1.1522 C   0  0  0  0  0  0  0  0  0  0  0  0
   -6.9190   -0.9301    1.6013 C   0  0  0  0  0  0  0  0  0  0  0  0
   -7.0577    0.3291    1.0094 C   0  0  0  0  0  0  0  0  0  0  0  0
   -6.2236    0.7106   -0.0408 C   0  0  0  0  0  0  0  0  0  0  0  0
    6.2234    0.7106    0.0407 C   0  0  0  0  0  0  0  0  0  0  0  0
    7.0574    0.3292   -1.0096 C   0  0  0  0  0  0  0  0  0  0  0  0
    6.9186   -0.9299   -1.6018 C   0  0  0  0  0  0  0  0  0  0  0  0
    5.9452   -1.8218   -1.1526 C   0  0  0  0  0  0  0  0  0  0  0  0
    2.0229    3.2672    0.7923 H   0  0  0  0  0  0  0  0  0  0  0  0
   -2.0225    3.2674   -0.7922 H   0  0  0  0  0  0  0  0  0  0  0  0
    0.0003    4.5780   -0.0000 H   0  0  0  0  0  0  0  0  0  0  0  0
    3.0702   -1.6772    2.4715 H   0  0  0  0  0  0  0  0  0  0  0  0
    4.6967    0.1798    2.5639 H   0  0  0  0  0  0  0  0  0  0  0  0
   -4.6965    0.1803   -2.5637 H   0  0  0  0  0  0  0  0  0  0  0  0
   -3.0702   -1.6768   -2.4715 H   0  0  0  0  0  0  0  0  0  0  0  0
   -4.4218   -3.0907   -1.1213 H   0  0  0  0  0  0  0  0  0  0  0  0
   -3.2818   -2.6428    0.1632 H   0  0  0  0  0  0  0  0  0  0  0  0
    4.4222   -3.0907    1.1213 H   0  0  0  0  0  0  0  0  0  0  0  0
    3.2819   -2.6432   -0.1630 H   0  0  0  0  0  0  0  0  0  0  0  0
   -5.8351   -2.8018    1.6214 H   0  0  0  0  0  0  0  0  0  0  0  0
   -7.5747   -1.2152    2.4257 H   0  0  0  0  0  0  0  0  0  0  0  0
   -7.8193    1.0186    1.3769 H   0  0  0  0  0  0  0  0  0  0  0  0
   -6.3136    1.6977   -0.4980 H   0  0  0  0  0  0  0  0  0  0  0  0
    6.3136    1.6975    0.4981 H   0  0  0  0  0  0  0  0  0  0  0  0
    7.8189    1.0187   -1.3772 H   0  0  0  0  0  0  0  0  0  0  0  0
    7.5741   -1.2148   -2.4263 H   0  0  0  0  0  0  0  0  0  0  0  0
    5.8347   -2.8016   -1.6219 H   0  0  0  0  0  0  0  0  0  0  0  0
  1  2  2  0  0  0  0
  1  6  1  0  0  0  0
  1 31  1  0  0  0  0
  2  3  1  0  0  0  0
  2  7  1  0  0  0  0
  3  4  2  0  0  0  0
  4  5  1  0  0  0  0
  4  8  1  0  0  0  0
  5  6  2  0  0  0  0
  5 32  1  0  0  0  0
  6 33  1  0  0  0  0
  7  9  1  0  0  0  0
  7 12  2  0  0  0  0
  8 13  2  0  0  0  0
  8 16  1  0  0  0  0
  9 10  1  0  0  0  0
 10 11  1  0  0  0  0
 10 22  1  0  0  0  0
 10 34  1  1  0  0  0
 11 12  1  0  0  0  0
 11 20  1  0  0  0  0
 11 35  1  1  0  0  0
 13 14  1  0  0  0  0
 14 15  1  0  0  0  0
 14 19  1  0  0  0  0
 14 36  1  6  0  0  0
 15 16  1  0  0  0  0
 15 17  1  0  0  0  0
 15 37  1  6  0  0  0
 17 18  1  0  0  0  0
 17 38  1  0  0  0  0
 17 39  1  0  0  0  0
 18 19  2  0  0  0  0
 18 23  1  0  0  0  0
 19 26  1  0  0  0  0
 20 21  2  0  0  0  0
 20 27  1  0  0  0  0
 21 22  1  0  0  0  0
 21 30  1  0  0  0  0
 22 40  1  0  0  0  0
 22 41  1  0  0  0  0
 23 24  2  0  0  0  0
 23 42  1  0  0  0  0
 24 25  1  0  0  0  0
 24 43  1  0  0  0  0
 25 26  2  0  0  0  0
 25 44  1  0  0  0  0
 26 45  1  0  0  0  0
 27 28  2  0  0  0  0
 27 46  1  0  0  0  0
 28 29  1  0  0  0  0
 28 47  1  0  0  0  0
 29 30  2  0  0  0  0
 29 48  1  0  0  0  0
 30 49  1  0  0  0  0
M  END
$$$$
