Title Card Required
 OpenBabel03192317503D

113119  0  0  1  0  0  0  0  0999 V2000
   -4.7308    1.7904   -0.0914 C   0  0  0  0  0  0  0  0  0  0  0  0
   -4.3707    0.4813    1.2027 P   0  0  0  0  0  0  0  0  0  0  0  0
   -5.5822   -0.9818    1.2431 C   0  0  0  0  0  0  0  0  0  0  0  0
   -2.6213   -0.3297    1.0268 C   0  0  1  0  0  0  0  0  0  0  0  0
    1.1781    0.1914   -0.3933 P   0  0  0  0  0  0  0  0  0  0  0  0
    2.7837   -0.7400   -0.1634 C   0  0  0  0  0  0  0  0  0  0  0  0
    3.0442   -1.4519    1.0084 C   0  0  0  0  0  0  0  0  0  0  0  0
    4.3562   -1.7084    1.4811 C   0  0  0  0  0  0  0  0  0  0  0  0
    4.4349   -2.1131    2.9578 C   0  0  0  0  0  0  0  0  0  0  0  0
    5.4554   -1.4276    0.6710 C   0  0  0  0  0  0  0  0  0  0  0  0
    6.7817   -1.6801    0.9131 O   0  0  0  0  0  0  0  0  0  0  0  0
    7.2757   -1.9028    2.2197 C   0  0  0  0  0  0  0  0  0  0  0  0
    5.2063   -0.8270   -0.5981 C   0  0  0  0  0  0  0  0  0  0  0  0
    6.4077   -0.3328   -1.4211 C   0  0  0  0  0  0  0  0  0  0  0  0
    3.8914   -0.5172   -1.0202 C   0  0  0  0  0  0  0  0  0  0  0  0
    1.7553    1.9438   -0.2192 C   0  0  0  0  0  0  0  0  0  0  0  0
    3.0815    2.3287    0.0306 C   0  0  0  0  0  0  0  0  0  0  0  0
    3.5625    3.6520   -0.1315 C   0  0  0  0  0  0  0  0  0  0  0  0
    5.0539    3.8328   -0.0032 C   0  0  0  0  0  0  0  0  0  0  0  0
    2.6336    4.6635   -0.4087 C   0  0  0  0  0  0  0  0  0  0  0  0
    2.8512    6.0034   -0.5549 O   0  0  0  0  0  0  0  0  0  0  0  0
    4.1490    6.5402   -0.7291 C   0  0  0  0  0  0  0  0  0  0  0  0
    1.2688    4.3135   -0.5427 C   0  0  0  0  0  0  0  0  0  0  0  0
    0.2161    5.3664   -0.7969 C   0  0  0  0  0  0  0  0  0  0  0  0
    0.8548    2.9700   -0.4794 C   0  0  0  0  0  0  0  0  0  0  0  0
    0.7975    0.2580    2.4657 C   0  0  0  0  0  0  0  0  0  0  0  0
    0.0846   -0.0762    1.1464 C   0  0  1  0  0  0  0  0  0  0  0  0
   -1.3522    0.6123    1.2361 C   0  0  2  0  0  0  0  0  0  0  0  0
   -1.3727    1.2911    2.6285 C   0  0  0  0  0  0  0  0  0  0  0  0
    0.0611    1.4121    3.0987 C   0  0  0  0  0  0  0  0  0  0  0  0
   -2.5412   -1.5199    2.0314 C   0  0  0  0  0  0  0  0  0  0  0  0
   -3.6048    2.8350   -0.2954 C   0  0  0  0  0  0  0  0  0  0  0  0
   -3.9273    4.0030   -1.2512 C   0  0  0  0  0  0  0  0  0  0  0  0
   -4.6995    3.6456   -2.5155 C   0  0  0  0  0  0  0  0  0  0  0  0
   -5.6961    2.5116   -2.3350 C   0  0  0  0  0  0  0  0  0  0  0  0
   -5.1832    1.3428   -1.4760 C   0  0  0  0  0  0  0  0  0  0  0  0
   -5.5015   -2.0281    0.1270 C   0  0  0  0  0  0  0  0  0  0  0  0
   -6.6768   -2.0287   -0.8490 C   0  0  0  0  0  0  0  0  0  0  0  0
   -8.0174   -2.1590   -0.1495 C   0  0  0  0  0  0  0  0  0  0  0  0
   -8.1990   -1.1041    0.9355 C   0  0  0  0  0  0  0  0  0  0  0  0
   -6.9959   -0.9420    1.8726 C   0  0  0  0  0  0  0  0  0  0  0  0
   -5.5774    2.3386    0.3490 H   0  0  0  0  0  0  0  0  0  0  0  0
   -5.0724   -1.4609    2.0872 H   0  0  0  0  0  0  0  0  0  0  0  0
   -2.5827   -0.7387    0.0099 H   0  0  0  0  0  0  0  0  0  0  0  0
    2.2347   -1.6522    1.6964 H   0  0  0  0  0  0  0  0  0  0  0  0
    4.8147   -3.1194    3.0543 H   0  0  0  0  0  0  0  0  0  0  0  0
    5.0481   -1.3903    3.5157 H   0  0  0  0  0  0  0  0  0  0  0  0
    3.4566   -2.0685    3.4253 H   0  0  0  0  0  0  0  0  0  0  0  0
    7.0813   -1.0537    2.8997 H   0  0  0  0  0  0  0  0  0  0  0  0
    6.9073   -2.8424    2.6276 H   0  0  0  0  0  0  0  0  0  0  0  0
    8.3717   -2.0044    2.1626 H   0  0  0  0  0  0  0  0  0  0  0  0
    7.1135    0.2249   -0.7941 H   0  0  0  0  0  0  0  0  0  0  0  0
    6.9365   -1.1903   -1.8658 H   0  0  0  0  0  0  0  0  0  0  0  0
    6.1001    0.3332   -2.2226 H   0  0  0  0  0  0  0  0  0  0  0  0
    3.7775    0.1493   -1.8939 H   0  0  0  0  0  0  0  0  0  0  0  0
    3.8158    1.6004    0.3585 H   0  0  0  0  0  0  0  0  0  0  0  0
    5.4776    4.2448   -0.9234 H   0  0  0  0  0  0  0  0  0  0  0  0
    5.3079    4.4520    0.8593 H   0  0  0  0  0  0  0  0  0  0  0  0
    5.5673    2.8730    0.1373 H   0  0  0  0  0  0  0  0  0  0  0  0
    4.7514    6.4320    0.1756 H   0  0  0  0  0  0  0  0  0  0  0  0
    4.6405    6.1144   -1.6090 H   0  0  0  0  0  0  0  0  0  0  0  0
    4.0449    7.6144   -0.9098 H   0  0  0  0  0  0  0  0  0  0  0  0
    0.2012    6.0950    0.0188 H   0  0  0  0  0  0  0  0  0  0  0  0
    0.4070    5.8727   -1.7476 H   0  0  0  0  0  0  0  0  0  0  0  0
   -0.7809    4.9208   -0.8560 H   0  0  0  0  0  0  0  0  0  0  0  0
   -0.1952    2.7538   -0.6553 H   0  0  0  0  0  0  0  0  0  0  0  0
    1.8554    0.5200    2.3731 H   0  0  0  0  0  0  0  0  0  0  0  0
   -1.9328    0.7172    3.3713 H   0  0  0  0  0  0  0  0  0  0  0  0
    0.4962    2.3655    2.7863 H   0  0  0  0  0  0  0  0  0  0  0  0
   -3.2983   -2.2856    1.8520 H   0  0  0  0  0  0  0  0  0  0  0  0
   -1.5965   -2.0583    1.9596 H   0  0  0  0  0  0  0  0  0  0  0  0
   -2.6541   -1.1992    3.0729 H   0  0  0  0  0  0  0  0  0  0  0  0
   -3.2973    3.2677    0.6645 H   0  0  0  0  0  0  0  0  0  0  0  0
   -2.7311    2.3336   -0.7201 H   0  0  0  0  0  0  0  0  0  0  0  0
   -4.4734    4.7835   -0.7078 H   0  0  0  0  0  0  0  0  0  0  0  0
   -2.9853    4.4746   -1.5644 H   0  0  0  0  0  0  0  0  0  0  0  0
   -5.2313    4.5396   -2.8748 H   0  0  0  0  0  0  0  0  0  0  0  0
   -3.9974    3.3887   -3.3184 H   0  0  0  0  0  0  0  0  0  0  0  0
   -6.6120    2.9170   -1.8863 H   0  0  0  0  0  0  0  0  0  0  0  0
   -5.9846    2.1377   -3.3260 H   0  0  0  0  0  0  0  0  0  0  0  0
   -4.3727    0.8255   -2.0017 H   0  0  0  0  0  0  0  0  0  0  0  0
   -6.0172    0.6589   -1.3780 H   0  0  0  0  0  0  0  0  0  0  0  0
   -4.5626   -1.9749   -0.4250 H   0  0  0  0  0  0  0  0  0  0  0  0
   -5.5104   -3.0199    0.6098 H   0  0  0  0  0  0  0  0  0  0  0  0
   -6.6864   -1.1212   -1.4464 H   0  0  0  0  0  0  0  0  0  0  0  0
   -6.5578   -2.8529   -1.5609 H   0  0  0  0  0  0  0  0  0  0  0  0
   -8.8263   -2.0633   -0.8883 H   0  0  0  0  0  0  0  0  0  0  0  0
   -8.1166   -3.1688    0.2744 H   0  0  0  0  0  0  0  0  0  0  0  0
   -8.4310   -0.1401    0.4735 H   0  0  0  0  0  0  0  0  0  0  0  0
   -9.0835   -1.3840    1.5281 H   0  0  0  0  0  0  0  0  0  0  0  0
   -7.0587   -1.8285    2.5314 H   0  0  0  0  0  0  0  0  0  0  0  0
   -7.1432   -0.0885    2.5420 H   0  0  0  0  0  0  0  0  0  0  0  0
    0.0382   -3.9755   -1.9671 C   0  0  0  0  0  0  0  0  0  0  0  0
    0.5979   -4.2280   -0.5736 C   0  0  0  0  0  0  0  0  0  0  0  0
   -0.4279   -5.1171    0.1283 C   0  0  0  0  0  0  0  0  0  0  0  0
   -1.4635   -5.4832   -0.9320 C   0  0  0  0  0  0  0  0  0  0  0  0
   -0.7545   -5.2389   -2.2545 C   0  0  0  0  0  0  0  0  0  0  0  0
    0.8192   -3.7896   -2.7089 H   0  0  0  0  0  0  0  0  0  0  0  0
    0.7761   -3.2975   -0.0298 H   0  0  0  0  0  0  0  0  0  0  0  0
   -0.8959   -4.6034    0.9744 H   0  0  0  0  0  0  0  0  0  0  0  0
   -2.3291   -4.8151   -0.8468 H   0  0  0  0  0  0  0  0  0  0  0  0
   -0.0769   -6.0706   -2.4831 H   0  0  0  0  0  0  0  0  0  0  0  0
    3.6238   -3.9448   -2.2254 Fe  0  0  0  0  0  0  0  0  0  0  0  0
    0.7398   -0.6176    3.1258 H   0  0  0  0  0  0  0  0  0  0  0  0
   -0.0468   -1.1589    1.0819 H   0  0  0  0  0  0  0  0  0  0  0  0
   -1.3969    1.3973    0.4861 H   0  0  0  0  0  0  0  0  0  0  0  0
   -1.8416    2.2797    2.5856 H   0  0  0  0  0  0  0  0  0  0  0  0
    0.1330    1.3566    4.1915 H   0  0  0  0  0  0  0  0  0  0  0  0
   -0.6305   -3.1061   -1.9504 H   0  0  0  0  0  0  0  0  0  0  0  0
    1.5543   -4.7599   -0.6417 H   0  0  0  0  0  0  0  0  0  0  0  0
    0.0617   -6.0165    0.5186 H   0  0  0  0  0  0  0  0  0  0  0  0
   -1.8207   -6.5115   -0.8297 H   0  0  0  0  0  0  0  0  0  0  0  0
   -1.4505   -5.1196   -3.0890 H   0  0  0  0  0  0  0  0  0  0  0  0
  1  2  1  0  0  0  0
  1 32  1  0  0  0  0
  1 36  1  0  0  0  0
  1 42  1  0  0  0  0
  2  3  1  0  0  0  0
  2  4  1  0  0  0  0
  3 37  1  0  0  0  0
  3 41  1  0  0  0  0
  3 43  1  0  0  0  0
  4 28  1  0  0  0  0
  4 31  1  0  0  0  0
  4 44  1  6  0  0  0
  5  6  1  0  0  0  0
  5 16  1  0  0  0  0
  5 27  1  0  0  0  0
  6  7  2  0  0  0  0
  6 15  1  0  0  0  0
  7  8  1  0  0  0  0
  7 45  1  0  0  0  0
  8  9  1  0  0  0  0
  8 10  2  0  0  0  0
  9 46  1  0  0  0  0
  9 47  1  0  0  0  0
  9 48  1  0  0  0  0
 10 11  1  0  0  0  0
 10 13  1  0  0  0  0
 11 12  1  0  0  0  0
 12 49  1  0  0  0  0
 12 50  1  0  0  0  0
 12 51  1  0  0  0  0
 13 14  1  0  0  0  0
 13 15  2  0  0  0  0
 14 52  1  0  0  0  0
 14 53  1  0  0  0  0
 14 54  1  0  0  0  0
 15 55  1  0  0  0  0
 16 17  2  0  0  0  0
 16 25  1  0  0  0  0
 17 18  1  0  0  0  0
 17 56  1  0  0  0  0
 18 19  1  0  0  0  0
 18 20  2  0  0  0  0
 19 57  1  0  0  0  0
 19 58  1  0  0  0  0
 19 59  1  0  0  0  0
 20 21  1  0  0  0  0
 20 23  1  0  0  0  0
 21 22  1  0  0  0  0
 22 60  1  0  0  0  0
 22 61  1  0  0  0  0
 22 62  1  0  0  0  0
 23 24  1  0  0  0  0
 23 25  2  0  0  0  0
 24 63  1  0  0  0  0
 24 64  1  0  0  0  0
 24 65  1  0  0  0  0
 25 66  1  0  0  0  0
 26 27  1  0  0  0  0
 26 30  1  0  0  0  0
 26 67  1  0  0  0  0
 26104  1  0  0  0  0
 27 28  1  0  0  0  0
 27105  1  1  0  0  0
 28 29  1  0  0  0  0
 28106  1  6  0  0  0
 29 30  1  0  0  0  0
 29 68  1  0  0  0  0
 29107  1  0  0  0  0
 30 69  1  0  0  0  0
 30108  1  0  0  0  0
 31 70  1  0  0  0  0
 31 71  1  0  0  0  0
 31 72  1  0  0  0  0
 32 33  1  0  0  0  0
 32 73  1  0  0  0  0
 32 74  1  0  0  0  0
 33 34  1  0  0  0  0
 33 75  1  0  0  0  0
 33 76  1  0  0  0  0
 34 35  1  0  0  0  0
 34 77  1  0  0  0  0
 34 78  1  0  0  0  0
 35 36  1  0  0  0  0
 35 79  1  0  0  0  0
 35 80  1  0  0  0  0
 36 81  1  0  0  0  0
 36 82  1  0  0  0  0
 37 38  1  0  0  0  0
 37 83  1  0  0  0  0
 37 84  1  0  0  0  0
 38 39  1  0  0  0  0
 38 85  1  0  0  0  0
 38 86  1  0  0  0  0
 39 40  1  0  0  0  0
 39 87  1  0  0  0  0
 39 88  1  0  0  0  0
 40 41  1  0  0  0  0
 40 89  1  0  0  0  0
 40 90  1  0  0  0  0
 41 91  1  0  0  0  0
 41 92  1  0  0  0  0
 93 94  1  0  0  0  0
 93 97  1  0  0  0  0
 93 98  1  0  0  0  0
 93109  1  0  0  0  0
 94 95  1  0  0  0  0
 94 99  1  0  0  0  0
 94110  1  0  0  0  0
 95 96  1  0  0  0  0
 95100  1  0  0  0  0
 95111  1  0  0  0  0
 96 97  1  0  0  0  0
 96101  1  0  0  0  0
 96112  1  0  0  0  0
 97102  1  0  0  0  0
 97113  1  0  0  0  0
 98103  1  0  0  0  0
 99105  1  0  0  0  0
103110  1  0  0  0  0
M  END
$$$$
