Title Card Required
 OpenBabel03192317473D

 80 85  0  0  1  0  0  0  0  0999 V2000
    0.3102    1.3034   -2.0154 C   0  0  0  0  0  0  0  0  0  0  0  0
    0.4351    0.4518   -0.9196 C   0  0  0  0  0  0  0  0  0  0  0  0
    1.3629    0.7999    0.0581 C   0  0  0  0  0  0  0  0  0  0  0  0
    2.0425    2.0149   -0.0356 C   0  0  0  0  0  3  0  0  0  0  0  0
    1.7623    2.8281   -1.1414 C   0  0  0  0  0  0  0  0  0  0  0  0
    0.9417    2.4686   -2.1216 N   0  0  0  0  0  4  0  0  0  0  0  0
   -0.1498   -1.8820   -1.6046 C   0  0  0  0  0  0  0  0  0  0  0  0
   -0.4049   -0.7598   -0.8008 C   0  0  1  0  0  3  0  0  0  0  0  0
   -1.4708   -0.8551    0.0959 C   0  0  0  0  0  0  0  0  0  0  0  0
   -2.1880   -2.0377    0.1608 C   0  0  0  0  0  0  0  0  0  0  0  0
   -1.7992   -3.0887   -0.6769 C   0  0  0  0  0  0  0  0  0  0  0  0
   -0.8207   -3.0134   -1.5381 N   0  0  0  0  0  4  0  0  0  0  0  0
   -2.4704   -4.2348   -0.5778 O   0  0  0  0  0  0  0  0  0  0  0  0
   -2.0697   -5.2851   -1.4283 C   0  0  0  0  0  0  0  0  0  0  0  0
    2.3747    4.0307   -1.2066 O   0  0  0  0  0  0  0  0  0  0  0  0
    2.0848    4.8521   -2.3155 C   0  0  0  0  0  0  0  0  0  0  0  0
    0.8388   -1.7927   -2.4880 O   0  0  0  0  0  0  0  0  0  0  0  0
    1.1398   -2.9602   -3.2204 C   0  0  0  0  0  0  0  0  0  0  0  0
   -0.5254    0.9217   -2.9839 O   0  0  0  0  0  0  0  0  0  0  0  0
   -0.6526    1.7667   -4.1080 C   0  0  0  0  0  0  0  0  0  0  0  0
   -1.7770    0.5587    1.2618 P   0  0  0  0  0  0  0  0  0  0  0  0
   -2.1961    1.9038    0.0733 C   0  0  0  0  0  0  0  0  0  0  0  0
   -2.9579    1.6953   -1.0877 C   0  0  0  0  0  0  0  0  0  0  0  0
   -3.2439    2.7599   -1.9425 C   0  0  0  0  0  0  0  0  0  0  0  0
   -2.7516    4.0321   -1.6608 C   0  0  0  0  0  0  0  0  0  0  0  0
   -1.9762    4.2425   -0.5185 C   0  0  0  0  0  0  0  0  0  0  0  0
   -1.6984    3.1802    0.3410 C   0  0  0  0  0  0  0  0  0  0  0  0
   -3.4205    0.1053    1.9537 C   0  0  0  0  0  0  0  0  0  0  0  0
   -3.4173   -0.8507    2.9793 C   0  0  0  0  0  0  0  0  0  0  0  0
   -4.6128   -1.2622    3.5716 C   0  0  0  0  0  0  0  0  0  0  0  0
   -5.8242   -0.6887    3.1680 C   0  0  0  0  0  0  0  0  0  0  0  0
   -5.8266    0.2884    2.1806 C   0  0  0  0  0  0  0  0  0  0  0  0
   -4.6357    0.6837    1.5751 C   0  0  0  0  0  0  0  0  0  0  0  0
    1.6088   -0.4670    1.3973 P   0  0  0  0  0  0  0  0  0  0  0  0
    2.4455   -1.7598    0.3833 C   0  0  0  0  0  0  0  0  0  0  0  0
    3.3085   -1.4727   -0.6754 C   0  0  0  0  0  0  0  0  0  0  0  0
    3.8918   -2.5115   -1.4069 C   0  0  0  0  0  0  0  0  0  0  0  0
    3.6076   -3.8413   -1.0917 C   0  0  0  0  0  0  0  0  0  0  0  0
    2.7421   -4.1352   -0.0606 C   0  0  0  0  0  0  0  0  0  0  0  0
    2.1612   -3.1044    0.6796 C   0  0  0  0  0  0  0  0  0  0  0  0
    2.9940    0.2892    2.3461 C   0  0  0  0  0  0  0  0  0  0  0  0
    2.6368    1.2956    3.2510 C   0  0  0  0  0  0  0  0  0  0  0  0
    3.6022    1.9358    4.0243 C   0  0  0  0  0  0  0  0  0  0  0  0
    4.9371    1.5595    3.9212 C   0  0  0  0  0  0  0  0  0  0  0  0
    5.3005    0.5454    3.0412 C   0  0  0  0  0  0  0  0  0  0  0  0
    4.3330   -0.0865    2.2512 C   0  0  0  0  0  0  0  0  0  0  0  0
    2.7783    2.3473    0.6943 H   0  0  0  0  0  0  0  0  0  0  0  0
   -3.0328   -2.1841    0.8346 H   0  0  0  0  0  0  0  0  0  0  0  0
   -2.1739   -5.0019   -2.4858 H   0  0  0  0  0  0  0  0  0  0  0  0
   -1.0203   -5.5608   -1.2493 H   0  0  0  0  0  0  0  0  0  0  0  0
   -2.7281   -6.1294   -1.1985 H   0  0  0  0  0  0  0  0  0  0  0  0
    2.3738    4.3649   -3.2564 H   0  0  0  0  0  0  0  0  0  0  0  0
    1.0114    5.0859   -2.3634 H   0  0  0  0  0  0  0  0  0  0  0  0
    2.6684    5.7713   -2.1744 H   0  0  0  0  0  0  0  0  0  0  0  0
    1.4269   -3.7830   -2.5425 H   0  0  0  0  0  0  0  0  0  0  0  0
    0.2787   -3.2791   -3.8255 H   0  0  0  0  0  0  0  0  0  0  0  0
    1.9865   -2.6997   -3.8661 H   0  0  0  0  0  0  0  0  0  0  0  0
   -0.9911    2.7687   -3.8131 H   0  0  0  0  0  0  0  0  0  0  0  0
    0.3074    1.8648   -4.6360 H   0  0  0  0  0  0  0  0  0  0  0  0
   -1.3941    1.2928   -4.7616 H   0  0  0  0  0  0  0  0  0  0  0  0
   -3.3277    0.6939   -1.3159 H   0  0  0  0  0  0  0  0  0  0  0  0
   -3.8386    2.5901   -2.8422 H   0  0  0  0  0  0  0  0  0  0  0  0
   -2.9674    4.8637   -2.3348 H   0  0  0  0  0  0  0  0  0  0  0  0
   -1.5854    5.2373   -0.2959 H   0  0  0  0  0  0  0  0  0  0  0  0
   -1.0873    3.3415    1.2323 H   0  0  0  0  0  0  0  0  0  0  0  0
   -2.4716   -1.2851    3.3087 H   0  0  0  0  0  0  0  0  0  0  0  0
   -4.5980   -2.0208    4.3577 H   0  0  0  0  0  0  0  0  0  0  0  0
   -6.7594   -0.9979    3.6361 H   0  0  0  0  0  0  0  0  0  0  0  0
   -6.7660    0.7466    1.8659 H   0  0  0  0  0  0  0  0  0  0  0  0
   -4.6569    1.4515    0.7960 H   0  0  0  0  0  0  0  0  0  0  0  0
    3.5327   -0.4304   -0.9317 H   0  0  0  0  0  0  0  0  0  0  0  0
    4.5671   -2.2779   -2.2300 H   0  0  0  0  0  0  0  0  0  0  0  0
    4.0658   -4.6509   -1.6660 H   0  0  0  0  0  0  0  0  0  0  0  0
    2.5036   -5.1733    0.1765 H   0  0  0  0  0  0  0  0  0  0  0  0
    1.4602   -3.3386    1.4822 H   0  0  0  0  0  0  0  0  0  0  0  0
    1.5846    1.5805    3.3444 H   0  0  0  0  0  0  0  0  0  0  0  0
    3.3061    2.7247    4.7173 H   0  0  0  0  0  0  0  0  0  0  0  0
    5.6956    2.0507    4.5320 H   0  0  0  0  0  0  0  0  0  0  0  0
    6.3449    0.2399    2.9632 H   0  0  0  0  0  0  0  0  0  0  0  0
    4.6296   -0.8795    1.5623 H   0  0  0  0  0  0  0  0  0  0  0  0
  1  2  1  0  0  0  0
  1  6  2  0  0  0  0
  1 19  1  0  0  0  0
  2  3  2  0  0  0  0
  3  4  1  0  0  0  0
  3 34  1  0  0  0  0
  4  5  1  0  0  0  0
  4 47  1  0  0  0  0
  5  6  2  0  0  0  0
  5 15  1  0  0  0  0
  7  8  1  0  0  0  0
  7 12  2  0  0  0  0
  7 17  1  0  0  0  0
  8  2  1  1  0  0  0
  8  9  1  0  0  0  0
  9 10  2  0  0  0  0
  9 21  1  0  0  0  0
 10 11  1  0  0  0  0
 10 48  1  0  0  0  0
 11 12  2  0  0  0  0
 11 13  1  0  0  0  0
 13 14  1  0  0  0  0
 14 49  1  0  0  0  0
 14 50  1  0  0  0  0
 14 51  1  0  0  0  0
 15 16  1  0  0  0  0
 16 52  1  0  0  0  0
 16 53  1  0  0  0  0
 16 54  1  0  0  0  0
 17 18  1  0  0  0  0
 18 55  1  0  0  0  0
 18 56  1  0  0  0  0
 18 57  1  0  0  0  0
 19 20  1  0  0  0  0
 20 58  1  0  0  0  0
 20 59  1  0  0  0  0
 20 60  1  0  0  0  0
 21 22  1  0  0  0  0
 21 28  1  0  0  0  0
 22 23  2  0  0  0  0
 22 27  1  0  0  0  0
 23 24  1  0  0  0  0
 23 61  1  0  0  0  0
 24 25  2  0  0  0  0
 24 62  1  0  0  0  0
 25 26  1  0  0  0  0
 25 63  1  0  0  0  0
 26 27  2  0  0  0  0
 26 64  1  0  0  0  0
 27 65  1  0  0  0  0
 28 29  2  0  0  0  0
 28 33  1  0  0  0  0
 29 30  1  0  0  0  0
 29 66  1  0  0  0  0
 30 31  2  0  0  0  0
 30 67  1  0  0  0  0
 31 32  1  0  0  0  0
 31 68  1  0  0  0  0
 32 33  2  0  0  0  0
 32 69  1  0  0  0  0
 33 70  1  0  0  0  0
 34 35  1  0  0  0  0
 34 41  1  0  0  0  0
 35 36  2  0  0  0  0
 35 40  1  0  0  0  0
 36 37  1  0  0  0  0
 36 71  1  0  0  0  0
 37 38  2  0  0  0  0
 37 72  1  0  0  0  0
 38 39  1  0  0  0  0
 38 73  1  0  0  0  0
 39 40  2  0  0  0  0
 39 74  1  0  0  0  0
 40 75  1  0  0  0  0
 41 42  2  0  0  0  0
 41 46  1  0  0  0  0
 42 43  1  0  0  0  0
 42 76  1  0  0  0  0
 43 44  2  0  0  0  0
 43 77  1  0  0  0  0
 44 45  1  0  0  0  0
 44 78  1  0  0  0  0
 45 46  2  0  0  0  0
 45 79  1  0  0  0  0
 46 80  1  0  0  0  0
M  END
$$$$
