Title Card Required
 OpenBabel03192317403D

 98103  0  0  0  0  0  0  0  0999 V2000
    0.5198   -1.9715   -0.5447 C   0  0  0  0  0  0  0  0  0  0  0  0
    1.8076   -1.4385   -0.7054 C   0  0  0  0  0  0  0  0  0  0  0  0
    2.5136   -1.6499   -1.8963 C   0  0  0  0  0  0  0  0  0  0  0  0
    1.9283   -2.3688   -2.9311 C   0  0  0  0  0  0  0  0  0  0  0  0
    0.6354   -2.8744   -2.8040 C   0  0  0  0  0  0  0  0  0  0  0  0
   -0.0674   -2.6807   -1.6126 C   0  0  0  0  0  0  0  0  0  0  0  0
   -0.2232   -1.8463    0.7473 C   0  0  0  0  0  0  0  0  0  0  0  0
   -1.3926   -1.0938    0.8986 C   0  0  0  0  0  0  0  0  0  0  0  0
   -2.0580   -1.0699    2.1364 C   0  0  0  0  0  0  0  0  0  0  0  0
   -1.5437   -1.7609    3.2207 C   0  0  0  0  0  0  0  0  0  0  0  0
   -0.3661   -2.5018    3.0940 C   0  0  0  0  0  0  0  0  0  0  0  0
    0.2839   -2.5579    1.8629 C   0  0  0  0  0  0  0  0  0  0  0  0
    1.4123   -3.2706    1.6514 O   0  0  0  0  0  0  0  0  0  0  0  0
    2.0839   -3.8038    2.7600 C   0  0  0  0  0  0  0  0  0  0  0  0
   -1.3235   -3.1471   -1.4132 O   0  0  0  0  0  0  0  0  0  0  0  0
   -2.0198   -3.6812   -2.5100 C   0  0  0  0  0  0  0  0  0  0  0  0
   -2.0739   -0.1266   -0.5303 P   0  0  0  0  0  0  0  0  0  0  0  0
   -3.8602   -0.5974   -0.3236 C   0  0  0  0  0  0  0  0  0  0  0  0
   -4.1483   -1.9724   -0.2712 C   0  0  0  0  0  0  0  0  0  0  0  0
   -5.4601   -2.4343   -0.2031 C   0  0  0  0  0  0  0  0  0  0  0  0
   -6.5038   -1.4976   -0.1901 C   0  0  0  0  0  0  0  0  0  0  0  0
   -6.2485   -0.1295   -0.2295 C   0  0  0  0  0  0  0  0  0  0  0  0
   -4.9166    0.3106   -0.2950 C   0  0  0  0  0  0  0  0  0  0  0  0
   -5.7622   -3.9099   -0.1436 C   0  0  0  0  0  0  0  0  0  0  0  0
   -7.3694    0.8774   -0.2016 C   0  0  0  0  0  0  0  0  0  0  0  0
   -2.0488    1.6000    0.1335 C   0  0  0  0  0  0  0  0  0  0  0  0
   -2.5967    2.6103   -0.6760 C   0  0  0  0  0  0  0  0  0  0  0  0
   -2.5838    3.9464   -0.2809 C   0  0  0  0  0  0  0  0  0  0  0  0
   -1.9986    4.2748    0.9503 C   0  0  0  0  0  0  0  0  0  0  0  0
   -1.4166    3.3009    1.7580 C   0  0  0  0  0  0  0  0  0  0  0  0
   -1.4383    1.9648    1.3325 C   0  0  0  0  0  0  0  0  0  0  0  0
   -3.1575    5.0262   -1.1618 C   0  0  0  0  0  0  0  0  0  0  0  0
   -0.7631    3.6449    3.0702 C   0  0  0  0  0  0  0  0  0  0  0  0
    2.4480   -0.3432    0.6462 P   0  0  0  0  0  0  0  0  0  0  0  0
    4.2333   -0.2359    0.1824 C   0  0  0  0  0  0  0  0  0  0  0  0
    4.7919    0.7972   -0.5807 C   0  0  0  0  0  0  0  0  0  0  0  0
    6.1557    0.8075   -0.8821 C   0  0  0  0  0  0  0  0  0  0  0  0
    6.9568   -0.2404   -0.4117 C   0  0  0  0  0  0  0  0  0  0  0  0
    6.4273   -1.2836    0.3493 C   0  0  0  0  0  0  0  0  0  0  0  0
    5.0598   -1.2613    0.6473 C   0  0  0  0  0  0  0  0  0  0  0  0
    6.7615    1.9147   -1.7057 C   0  0  0  0  0  0  0  0  0  0  0  0
    7.2966   -2.4076    0.8515 C   0  0  0  0  0  0  0  0  0  0  0  0
    1.8178    1.2807    0.0309 C   0  0  0  0  0  0  0  0  0  0  0  0
    2.0630    2.4082    0.8314 C   0  0  0  0  0  0  0  0  0  0  0  0
    1.6365    3.6761    0.4389 C   0  0  0  0  0  0  0  0  0  0  0  0
    0.9202    3.8003   -0.7597 C   0  0  0  0  0  0  0  0  0  0  0  0
    0.6466    2.6979   -1.5647 C   0  0  0  0  0  0  0  0  0  0  0  0
    1.1102    1.4373   -1.1608 C   0  0  0  0  0  0  0  0  0  0  0  0
    1.9045    4.8967    1.2791 C   0  0  0  0  0  0  0  0  0  0  0  0
   -0.1202    2.8375   -2.8529 C   0  0  0  0  0  0  0  0  0  0  0  0
    3.5149   -1.2351   -2.0189 H   0  0  0  0  0  0  0  0  0  0  0  0
    2.4764   -2.5318   -3.8607 H   0  0  0  0  0  0  0  0  0  0  0  0
    0.1875   -3.4229   -3.6306 H   0  0  0  0  0  0  0  0  0  0  0  0
   -2.9805   -0.4946    2.2371 H   0  0  0  0  0  0  0  0  0  0  0  0
   -2.0583   -1.7312    4.1825 H   0  0  0  0  0  0  0  0  0  0  0  0
    0.0273   -3.0400    3.9548 H   0  0  0  0  0  0  0  0  0  0  0  0
    2.3395   -3.0134    3.4857 H   0  0  0  0  0  0  0  0  0  0  0  0
    1.4864   -4.5806    3.2660 H   0  0  0  0  0  0  0  0  0  0  0  0
    3.0053   -4.2589    2.3790 H   0  0  0  0  0  0  0  0  0  0  0  0
   -2.0643   -2.9600   -3.3423 H   0  0  0  0  0  0  0  0  0  0  0  0
   -1.5606   -4.6188   -2.8641 H   0  0  0  0  0  0  0  0  0  0  0  0
   -3.0395   -3.8877   -2.1640 H   0  0  0  0  0  0  0  0  0  0  0  0
   -3.3205   -2.6866   -0.2547 H   0  0  0  0  0  0  0  0  0  0  0  0
   -7.5382   -1.8496   -0.1367 H   0  0  0  0  0  0  0  0  0  0  0  0
   -4.7220    1.3848   -0.3037 H   0  0  0  0  0  0  0  0  0  0  0  0
   -6.3664   -4.1552    0.7423 H   0  0  0  0  0  0  0  0  0  0  0  0
   -6.3347   -4.2308   -1.0272 H   0  0  0  0  0  0  0  0  0  0  0  0
   -4.8393   -4.5035   -0.0987 H   0  0  0  0  0  0  0  0  0  0  0  0
   -7.2322    1.5968    0.6189 H   0  0  0  0  0  0  0  0  0  0  0  0
   -7.4019    1.4545   -1.1380 H   0  0  0  0  0  0  0  0  0  0  0  0
   -8.3439    0.3891   -0.0701 H   0  0  0  0  0  0  0  0  0  0  0  0
   -3.0352    2.3488   -1.6444 H   0  0  0  0  0  0  0  0  0  0  0  0
   -1.9860    5.3201    1.2747 H   0  0  0  0  0  0  0  0  0  0  0  0
   -0.9575    1.2106    1.9585 H   0  0  0  0  0  0  0  0  0  0  0  0
   -3.9168    5.6151   -0.6262 H   0  0  0  0  0  0  0  0  0  0  0  0
   -2.3720    5.7265   -1.4862 H   0  0  0  0  0  0  0  0  0  0  0  0
   -3.6248    4.6024   -2.0607 H   0  0  0  0  0  0  0  0  0  0  0  0
   -1.2531    3.1166    3.9016 H   0  0  0  0  0  0  0  0  0  0  0  0
    0.2936    3.3350    3.0628 H   0  0  0  0  0  0  0  0  0  0  0  0
   -0.8078    4.7227    3.2766 H   0  0  0  0  0  0  0  0  0  0  0  0
    4.1552    1.6054   -0.9488 H   0  0  0  0  0  0  0  0  0  0  0  0
    8.0262   -0.2385   -0.6424 H   0  0  0  0  0  0  0  0  0  0  0  0
    4.6285   -2.0641    1.2543 H   0  0  0  0  0  0  0  0  0  0  0  0
    7.6037    2.3848   -1.1768 H   0  0  0  0  0  0  0  0  0  0  0  0
    7.1495    1.5288   -2.6604 H   0  0  0  0  0  0  0  0  0  0  0  0
    6.0210    2.6934   -1.9292 H   0  0  0  0  0  0  0  0  0  0  0  0
    7.2435   -2.4868    1.9473 H   0  0  0  0  0  0  0  0  0  0  0  0
    6.9682   -3.3726    0.4374 H   0  0  0  0  0  0  0  0  0  0  0  0
    8.3473   -2.2571    0.5715 H   0  0  0  0  0  0  0  0  0  0  0  0
    2.6054    2.2921    1.7755 H   0  0  0  0  0  0  0  0  0  0  0  0
    0.5552    4.7872   -1.0612 H   0  0  0  0  0  0  0  0  0  0  0  0
    0.8927    0.5748   -1.7943 H   0  0  0  0  0  0  0  0  0  0  0  0
    2.5423    5.6132    0.7397 H   0  0  0  0  0  0  0  0  0  0  0  0
    0.9630    5.4141    1.5208 H   0  0  0  0  0  0  0  0  0  0  0  0
    2.4067    4.6371    2.2207 H   0  0  0  0  0  0  0  0  0  0  0  0
    0.5647    2.9123   -3.7124 H   0  0  0  0  0  0  0  0  0  0  0  0
   -0.7634    1.9601   -3.0153 H   0  0  0  0  0  0  0  0  0  0  0  0
   -0.7533    3.7360   -2.8429 H   0  0  0  0  0  0  0  0  0  0  0  0
  1  2  2  0  0  0  0
  1  6  1  0  0  0  0
  1  7  1  0  0  0  0
  2  3  1  0  0  0  0
  2 34  1  0  0  0  0
  3  4  2  0  0  0  0
  3 51  1  0  0  0  0
  4  5  1  0  0  0  0
  4 52  1  0  0  0  0
  5  6  2  0  0  0  0
  5 53  1  0  0  0  0
  6 15  1  0  0  0  0
  7  8  2  0  0  0  0
  7 12  1  0  0  0  0
  8  9  1  0  0  0  0
  8 17  1  0  0  0  0
  9 10  2  0  0  0  0
  9 54  1  0  0  0  0
 10 11  1  0  0  0  0
 10 55  1  0  0  0  0
 11 12  2  0  0  0  0
 11 56  1  0  0  0  0
 12 13  1  0  0  0  0
 13 14  1  0  0  0  0
 14 57  1  0  0  0  0
 14 58  1  0  0  0  0
 14 59  1  0  0  0  0
 15 16  1  0  0  0  0
 16 60  1  0  0  0  0
 16 61  1  0  0  0  0
 16 62  1  0  0  0  0
 17 18  1  0  0  0  0
 17 26  1  0  0  0  0
 18 19  2  0  0  0  0
 18 23  1  0  0  0  0
 19 20  1  0  0  0  0
 19 63  1  0  0  0  0
 20 21  2  0  0  0  0
 20 24  1  0  0  0  0
 21 22  1  0  0  0  0
 21 64  1  0  0  0  0
 22 23  2  0  0  0  0
 22 25  1  0  0  0  0
 23 65  1  0  0  0  0
 24 66  1  0  0  0  0
 24 67  1  0  0  0  0
 24 68  1  0  0  0  0
 25 69  1  0  0  0  0
 25 70  1  0  0  0  0
 25 71  1  0  0  0  0
 26 27  2  0  0  0  0
 26 31  1  0  0  0  0
 27 28  1  0  0  0  0
 27 72  1  0  0  0  0
 28 29  2  0  0  0  0
 28 32  1  0  0  0  0
 29 30  1  0  0  0  0
 29 73  1  0  0  0  0
 30 31  2  0  0  0  0
 30 33  1  0  0  0  0
 31 74  1  0  0  0  0
 32 75  1  0  0  0  0
 32 76  1  0  0  0  0
 32 77  1  0  0  0  0
 33 78  1  0  0  0  0
 33 79  1  0  0  0  0
 33 80  1  0  0  0  0
 34 35  1  0  0  0  0
 34 43  1  0  0  0  0
 35 36  2  0  0  0  0
 35 40  1  0  0  0  0
 36 37  1  0  0  0  0
 36 81  1  0  0  0  0
 37 38  2  0  0  0  0
 37 41  1  0  0  0  0
 38 39  1  0  0  0  0
 38 82  1  0  0  0  0
 39 40  2  0  0  0  0
 39 42  1  0  0  0  0
 40 83  1  0  0  0  0
 41 84  1  0  0  0  0
 41 85  1  0  0  0  0
 41 86  1  0  0  0  0
 42 87  1  0  0  0  0
 42 88  1  0  0  0  0
 42 89  1  0  0  0  0
 43 44  2  0  0  0  0
 43 48  1  0  0  0  0
 44 45  1  0  0  0  0
 44 90  1  0  0  0  0
 45 46  2  0  0  0  0
 45 49  1  0  0  0  0
 46 47  1  0  0  0  0
 46 91  1  0  0  0  0
 47 48  2  0  0  0  0
 47 50  1  0  0  0  0
 48 92  1  0  0  0  0
 49 93  1  0  0  0  0
 49 94  1  0  0  0  0
 49 95  1  0  0  0  0
 50 96  1  0  0  0  0
 50 97  1  0  0  0  0
 50 98  1  0  0  0  0
M  END
$$$$
