Title Card Required
 OpenBabel03192317473D

 41 44  0  0  1  0  0  0  0  0999 V2000
    4.5630    1.6987    1.0116 C   0  0  0  0  0  0  0  0  0  0  0  0
    3.2759    1.6075    0.5073 C   0  0  0  0  0  0  0  0  0  0  0  0
    2.8325    0.4271   -0.1085 C   0  0  0  0  0  0  0  0  0  0  0  0
    3.6978   -0.6877   -0.2225 C   0  0  0  0  0  0  0  0  0  0  0  0
    4.9986   -0.5812    0.2964 C   0  0  0  0  0  0  0  0  0  0  0  0
    5.4186    0.5938    0.9002 C   0  0  0  0  0  0  0  0  0  0  0  0
    3.3251   -1.8290   -0.7918 O   0  0  0  0  0  0  0  0  0  0  0  0
    1.4734    0.3148   -0.6258 C   0  0  0  0  0  0  0  0  0  0  0  0
    1.0149   -0.6974   -1.2633 N   0  0  0  0  0  0  0  0  0  0  0  0
   -0.4129   -0.4878   -1.4603 C   0  0  2  0  0  0  0  0  0  0  0  0
   -0.5682    1.0468   -1.1405 C   0  0  2  0  0  0  0  0  0  0  0  0
    0.6197    1.3266   -0.3884 O   0  0  0  0  0  0  0  0  0  0  0  0
   -1.8017    1.4541   -0.3893 C   0  0  0  0  0  0  0  0  0  0  0  0
   -1.2480   -1.3968   -0.5776 C   0  0  0  0  0  0  0  0  0  0  0  0
   -1.8795    1.2962    0.9974 C   0  0  0  0  0  0  0  0  0  0  0  0
   -3.0692    1.5710    1.6655 C   0  0  0  0  0  0  0  0  0  0  0  0
   -4.1902    2.0041    0.9555 C   0  0  0  0  0  0  0  0  0  0  0  0
   -4.1121    2.1764   -0.4249 C   0  0  0  0  0  0  0  0  0  0  0  0
   -2.9184    1.9066   -1.0934 C   0  0  0  0  0  0  0  0  0  0  0  0
   -0.7120   -2.0095    0.5564 C   0  0  0  0  0  0  0  0  0  0  0  0
   -1.5284   -2.7596    1.4042 C   0  0  0  0  0  0  0  0  0  0  0  0
   -2.8852   -2.9040    1.1254 C   0  0  0  0  0  0  0  0  0  0  0  0
   -3.4234   -2.3081   -0.0163 C   0  0  0  0  0  0  0  0  0  0  0  0
   -2.6071   -1.5660   -0.8642 C   0  0  0  0  0  0  0  0  0  0  0  0
    4.9055    2.6171    1.4878 H   0  0  0  0  0  0  0  0  0  0  0  0
    2.5819    2.4459    0.5780 H   0  0  0  0  0  0  0  0  0  0  0  0
    5.6551   -1.4466    0.2059 H   0  0  0  0  0  0  0  0  0  0  0  0
    6.4348    0.6555    1.2941 H   0  0  0  0  0  0  0  0  0  0  0  0
    2.3990   -1.7244   -1.1331 H   0  0  0  0  0  0  0  0  0  0  0  0
   -0.6874   -0.6684   -2.5095 H   0  0  0  0  0  0  0  0  0  0  0  0
   -0.5001    1.6136   -2.0832 H   0  0  0  0  0  0  0  0  0  0  0  0
   -1.0016    0.9519    1.5467 H   0  0  0  0  0  0  0  0  0  0  0  0
   -3.1241    1.4423    2.7475 H   0  0  0  0  0  0  0  0  0  0  0  0
   -5.1228    2.2146    1.4812 H   0  0  0  0  0  0  0  0  0  0  0  0
   -4.9813    2.5263   -0.9841 H   0  0  0  0  0  0  0  0  0  0  0  0
   -2.8564    2.0447   -2.1760 H   0  0  0  0  0  0  0  0  0  0  0  0
    0.3532   -1.9076    0.7710 H   0  0  0  0  0  0  0  0  0  0  0  0
   -1.0970   -3.2347    2.2866 H   0  0  0  0  0  0  0  0  0  0  0  0
   -3.5227   -3.4885    1.7905 H   0  0  0  0  0  0  0  0  0  0  0  0
   -4.4836   -2.4239   -0.2465 H   0  0  0  0  0  0  0  0  0  0  0  0
   -3.0344   -1.0954   -1.7532 H   0  0  0  0  0  0  0  0  0  0  0  0
  1  2  2  0  0  0  0
  1  6  1  0  0  0  0
  1 25  1  0  0  0  0
  2  3  1  0  0  0  0
  2 26  1  0  0  0  0
  3  4  2  0  0  0  0
  3  8  1  0  0  0  0
  4  5  1  0  0  0  0
  4  7  1  0  0  0  0
  5  6  2  0  0  0  0
  5 27  1  0  0  0  0
  6 28  1  0  0  0  0
  7 29  1  0  0  0  0
  8  9  2  0  0  0  0
  8 12  1  0  0  0  0
  9 10  1  0  0  0  0
 10 11  1  0  0  0  0
 10 14  1  0  0  0  0
 10 30  1  6  0  0  0
 11 12  1  0  0  0  0
 11 13  1  0  0  0  0
 11 31  1  6  0  0  0
 13 15  2  0  0  0  0
 13 19  1  0  0  0  0
 14 20  2  0  0  0  0
 14 24  1  0  0  0  0
 15 16  1  0  0  0  0
 15 32  1  0  0  0  0
 16 17  2  0  0  0  0
 16 33  1  0  0  0  0
 17 18  1  0  0  0  0
 17 34  1  0  0  0  0
 18 19  2  0  0  0  0
 18 35  1  0  0  0  0
 19 36  1  0  0  0  0
 20 21  1  0  0  0  0
 20 37  1  0  0  0  0
 21 22  2  0  0  0  0
 21 38  1  0  0  0  0
 22 23  1  0  0  0  0
 22 39  1  0  0  0  0
 23 24  2  0  0  0  0
 23 40  1  0  0  0  0
 24 41  1  0  0  0  0
M  END
$$$$
