Title Card Required
 OpenBabel03192317543D

 67 73  0  0  1  0  0  0  0  0999 V2000
    1.2372    0.1120    3.2572 C   0  0  0  0  0  0  0  0  0  0  0  0
    1.1671    0.0299    1.8625 C   0  0  0  0  0  0  0  0  0  0  0  0
    0.0271    0.0983    1.1798 N   0  0  0  0  0  0  0  0  0  0  0  0
   -1.1008    0.2601    1.8662 C   0  0  0  0  0  0  0  0  0  0  0  0
   -1.1460    0.3743    3.2602 C   0  0  0  0  0  0  0  0  0  0  0  0
    0.0519    0.2937    3.9640 C   0  0  0  0  0  0  0  0  0  0  0  0
    2.4162   -0.1696    1.0839 C   0  0  0  0  0  0  0  0  0  0  0  0
   -2.3671    0.3361    1.0941 C   0  0  0  0  0  0  0  0  0  0  0  0
    2.3467    0.0708   -0.2399 O   0  0  0  0  0  0  0  0  0  0  0  0
    3.5617   -0.4311   -0.7969 C   0  0  1  0  0  0  0  0  0  0  0  0
    4.4850   -0.5886    0.4645 C   0  0  2  0  0  0  0  0  0  0  0  0
    3.5396   -0.5460    1.5768 N   0  0  0  0  0  0  0  0  0  0  0  0
   -3.5018    0.6744    1.5808 N   0  0  0  0  0  0  0  0  0  0  0  0
   -4.4662    0.5789    0.4895 C   0  0  1  0  0  0  0  0  0  0  0  0
   -3.5568    0.3900   -0.7771 C   0  0  2  0  0  0  0  0  0  0  0  0
   -2.3011    0.0145   -0.2132 O   0  0  0  0  0  0  0  0  0  0  0  0
    3.3031   -1.7335   -1.5224 C   0  0  0  0  0  0  0  0  0  0  0  0
    5.5406    0.4936    0.5679 C   0  0  0  0  0  0  0  0  0  0  0  0
   -5.4488   -0.5575    0.6870 C   0  0  0  0  0  0  0  0  0  0  0  0
   -3.4104    1.6482   -1.6026 C   0  0  0  0  0  0  0  0  0  0  0  0
   -4.5271    2.1379   -2.2889 C   0  0  0  0  0  0  0  0  0  0  0  0
   -4.4363    3.3040   -3.0427 C   0  0  0  0  0  0  0  0  0  0  0  0
   -3.2236    3.9913   -3.1195 C   0  0  0  0  0  0  0  0  0  0  0  0
   -2.1084    3.5020   -2.4436 C   0  0  0  0  0  0  0  0  0  0  0  0
   -2.1964    2.3314   -1.6880 C   0  0  0  0  0  0  0  0  0  0  0  0
   -6.7581   -0.4328    0.2140 C   0  0  0  0  0  0  0  0  0  0  0  0
   -7.6558   -1.4939    0.3189 C   0  0  0  0  0  0  0  0  0  0  0  0
   -7.2524   -2.6926    0.9052 C   0  0  0  0  0  0  0  0  0  0  0  0
   -5.9501   -2.8213    1.3874 C   0  0  0  0  0  0  0  0  0  0  0  0
   -5.0536   -1.7596    1.2801 C   0  0  0  0  0  0  0  0  0  0  0  0
    5.2352    1.7490    1.1005 C   0  0  0  0  0  0  0  0  0  0  0  0
    6.1973    2.7568    1.1277 C   0  0  0  0  0  0  0  0  0  0  0  0
    7.4766    2.5200    0.6259 C   0  0  0  0  0  0  0  0  0  0  0  0
    7.7907    1.2681    0.0991 C   0  0  0  0  0  0  0  0  0  0  0  0
    6.8269    0.2614    0.0733 C   0  0  0  0  0  0  0  0  0  0  0  0
    4.3680   -2.3824   -2.1573 C   0  0  0  0  0  0  0  0  0  0  0  0
    4.1627   -3.5871   -2.8239 C   0  0  0  0  0  0  0  0  0  0  0  0
    2.8880   -4.1546   -2.8612 C   0  0  0  0  0  0  0  0  0  0  0  0
    1.8254   -3.5082   -2.2339 C   0  0  0  0  0  0  0  0  0  0  0  0
    2.0275   -2.2984   -1.5675 C   0  0  0  0  0  0  0  0  0  0  0  0
    2.2095    0.0305    3.7431 H   0  0  0  0  0  0  0  0  0  0  0  0
   -2.1106    0.5182    3.7468 H   0  0  0  0  0  0  0  0  0  0  0  0
    0.0615    0.3708    5.0520 H   0  0  0  0  0  0  0  0  0  0  0  0
    3.9512    0.3256   -1.4926 H   0  0  0  0  0  0  0  0  0  0  0  0
    4.9845   -1.5685    0.4447 H   0  0  0  0  0  0  0  0  0  0  0  0
   -5.0302    1.5200    0.4100 H   0  0  0  0  0  0  0  0  0  0  0  0
   -3.9088   -0.4396   -1.4066 H   0  0  0  0  0  0  0  0  0  0  0  0
   -5.4757    1.5960   -2.2336 H   0  0  0  0  0  0  0  0  0  0  0  0
   -5.3124    3.6769   -3.5757 H   0  0  0  0  0  0  0  0  0  0  0  0
   -3.1505    4.9056   -3.7104 H   0  0  0  0  0  0  0  0  0  0  0  0
   -1.1565    4.0318   -2.5060 H   0  0  0  0  0  0  0  0  0  0  0  0
   -1.3206    1.9339   -1.1720 H   0  0  0  0  0  0  0  0  0  0  0  0
   -7.0805    0.5103   -0.2351 H   0  0  0  0  0  0  0  0  0  0  0  0
   -8.6757   -1.3813   -0.0522 H   0  0  0  0  0  0  0  0  0  0  0  0
   -7.9541   -3.5235    0.9912 H   0  0  0  0  0  0  0  0  0  0  0  0
   -5.6305   -3.7545    1.8542 H   0  0  0  0  0  0  0  0  0  0  0  0
   -4.0390   -1.8591    1.6712 H   0  0  0  0  0  0  0  0  0  0  0  0
    4.2388    1.9319    1.5078 H   0  0  0  0  0  0  0  0  0  0  0  0
    5.9481    3.7324    1.5482 H   0  0  0  0  0  0  0  0  0  0  0  0
    8.2297    3.3089    0.6515 H   0  0  0  0  0  0  0  0  0  0  0  0
    8.7923    1.0721   -0.2868 H   0  0  0  0  0  0  0  0  0  0  0  0
    7.0793   -0.7235   -0.3284 H   0  0  0  0  0  0  0  0  0  0  0  0
    5.3665   -1.9367   -2.1316 H   0  0  0  0  0  0  0  0  0  0  0  0
    4.9987   -4.0849   -3.3180 H   0  0  0  0  0  0  0  0  0  0  0  0
    2.7249   -5.0994   -3.3817 H   0  0  0  0  0  0  0  0  0  0  0  0
    0.8260   -3.9450   -2.2644 H   0  0  0  0  0  0  0  0  0  0  0  0
    1.1963   -1.7827   -1.0831 H   0  0  0  0  0  0  0  0  0  0  0  0
  1  2  2  0  0  0  0
  1  6  1  0  0  0  0
  1 41  1  0  0  0  0
  2  3  1  0  0  0  0
  2  7  1  0  0  0  0
  3  4  2  0  0  0  0
  4  5  1  0  0  0  0
  4  8  1  0  0  0  0
  5  6  2  0  0  0  0
  5 42  1  0  0  0  0
  6 43  1  0  0  0  0
  7  9  1  0  0  0  0
  7 12  2  0  0  0  0
  8 13  2  0  0  0  0
  8 16  1  0  0  0  0
  9 10  1  0  0  0  0
 10 11  1  0  0  0  0
 10 17  1  0  0  0  0
 10 44  1  6  0  0  0
 11 12  1  0  0  0  0
 11 18  1  0  0  0  0
 11 45  1  6  0  0  0
 13 14  1  0  0  0  0
 14 15  1  0  0  0  0
 14 19  1  0  0  0  0
 14 46  1  6  0  0  0
 15 16  1  0  0  0  0
 15 20  1  0  0  0  0
 15 47  1  6  0  0  0
 17 36  2  0  0  0  0
 17 40  1  0  0  0  0
 18 31  2  0  0  0  0
 18 35  1  0  0  0  0
 19 26  2  0  0  0  0
 19 30  1  0  0  0  0
 20 21  2  0  0  0  0
 20 25  1  0  0  0  0
 21 22  1  0  0  0  0
 21 48  1  0  0  0  0
 22 23  2  0  0  0  0
 22 49  1  0  0  0  0
 23 24  1  0  0  0  0
 23 50  1  0  0  0  0
 24 25  2  0  0  0  0
 24 51  1  0  0  0  0
 25 52  1  0  0  0  0
 26 27  1  0  0  0  0
 26 53  1  0  0  0  0
 27 28  2  0  0  0  0
 27 54  1  0  0  0  0
 28 29  1  0  0  0  0
 28 55  1  0  0  0  0
 29 30  2  0  0  0  0
 29 56  1  0  0  0  0
 30 57  1  0  0  0  0
 31 32  1  0  0  0  0
 31 58  1  0  0  0  0
 32 33  2  0  0  0  0
 32 59  1  0  0  0  0
 33 34  1  0  0  0  0
 33 60  1  0  0  0  0
 34 35  2  0  0  0  0
 34 61  1  0  0  0  0
 35 62  1  0  0  0  0
 36 37  1  0  0  0  0
 36 63  1  0  0  0  0
 37 38  2  0  0  0  0
 37 64  1  0  0  0  0
 38 39  1  0  0  0  0
 38 65  1  0  0  0  0
 39 40  2  0  0  0  0
 39 66  1  0  0  0  0
 40 67  1  0  0  0  0
M  END
$$$$
