Title Card Required
 OpenBabel03192317473D

 32 34  0  0  0  0  0  0  0  0999 V2000
    0.7487    0.3843    1.4067 C   0  0  0  0  0  0  0  0  0  0  0  0
   -0.4060    0.3771    2.2011 C   0  0  0  0  0  0  0  0  0  0  0  0
   -1.4482   -0.5171    1.9717 C   0  0  0  0  0  0  0  0  0  0  0  0
   -1.3652   -1.4399    0.9242 C   0  0  0  0  0  0  0  0  0  0  0  0
   -0.1114   -1.6311    0.3354 C   0  0  0  0  0  0  0  0  0  0  0  0
    0.9242   -0.7364    0.5882 C   0  0  0  0  0  0  0  0  0  0  0  0
    2.5239   -0.9179   -0.4227 Br  0  0  0  0  0  0  0  0  0  0  0  0
   -2.6011   -1.9772    0.2415 C   0  0  0  0  0  0  0  0  0  0  0  0
    1.5374    1.6602    1.2200 C   0  0  0  0  0  0  0  0  0  0  0  0
    1.2100    2.3825   -0.1540 C   0  0  0  0  0  0  0  0  0  0  0  0
   -3.2497   -0.9319   -0.7707 C   0  0  0  0  0  0  0  0  0  0  0  0
   -2.4213    1.3953   -0.2626 C   0  0  0  0  0  0  0  0  0  0  0  0
   -1.3160    2.2276   -0.1080 C   0  0  0  0  0  0  0  0  0  0  0  0
   -0.1067    1.9277   -0.7443 C   0  0  0  0  0  0  0  0  0  0  0  0
   -0.1406    0.9646   -1.7603 C   0  0  0  0  0  0  0  0  0  0  0  0
   -1.2493    0.1339   -1.9178 C   0  0  0  0  0  0  0  0  0  0  0  0
   -2.3496    0.2471   -1.0607 C   0  0  0  0  0  0  0  0  0  0  0  0
   -0.5527    1.1931    2.9133 H   0  0  0  0  0  0  0  0  0  0  0  0
   -2.3909   -0.3904    2.5097 H   0  0  0  0  0  0  0  0  0  0  0  0
    0.0220   -2.3903   -0.4376 H   0  0  0  0  0  0  0  0  0  0  0  0
   -2.3391   -2.8889   -0.3137 H   0  0  0  0  0  0  0  0  0  0  0  0
   -3.3626   -2.2601    0.9824 H   0  0  0  0  0  0  0  0  0  0  0  0
    2.6203    1.4775    1.2647 H   0  0  0  0  0  0  0  0  0  0  0  0
    1.2871    2.3379    2.0482 H   0  0  0  0  0  0  0  0  0  0  0  0
    2.0169    2.1685   -0.8685 H   0  0  0  0  0  0  0  0  0  0  0  0
    1.2153    3.4675    0.0280 H   0  0  0  0  0  0  0  0  0  0  0  0
   -3.5067   -1.4677   -1.6959 H   0  0  0  0  0  0  0  0  0  0  0  0
   -4.1930   -0.5672   -0.3394 H   0  0  0  0  0  0  0  0  0  0  0  0
   -3.3050    1.5616    0.3594 H   0  0  0  0  0  0  0  0  0  0  0  0
   -1.3519    3.0301    0.6342 H   0  0  0  0  0  0  0  0  0  0  0  0
    0.7654    0.7600   -2.3358 H   0  0  0  0  0  0  0  0  0  0  0  0
   -1.1922   -0.7053   -2.6167 H   0  0  0  0  0  0  0  0  0  0  0  0
  1  2  2  0  0  0  0
  1  6  1  0  0  0  0
  1  9  1  0  0  0  0
  2  3  1  0  0  0  0
  2 18  1  0  0  0  0
  3  4  2  0  0  0  0
  3 19  1  0  0  0  0
  4  5  1  0  0  0  0
  4  8  1  0  0  0  0
  5  6  2  0  0  0  0
  5 20  1  0  0  0  0
  6  7  1  0  0  0  0
  8 11  1  0  0  0  0
  8 21  1  0  0  0  0
  8 22  1  0  0  0  0
  9 10  1  0  0  0  0
  9 23  1  0  0  0  0
  9 24  1  0  0  0  0
 10 14  1  0  0  0  0
 10 25  1  0  0  0  0
 10 26  1  0  0  0  0
 11 17  1  0  0  0  0
 11 27  1  0  0  0  0
 11 28  1  0  0  0  0
 12 13  2  0  0  0  0
 12 17  1  0  0  0  0
 12 29  1  0  0  0  0
 13 14  1  0  0  0  0
 13 30  1  0  0  0  0
 14 15  2  0  0  0  0
 15 16  1  0  0  0  0
 15 31  1  0  0  0  0
 16 17  2  0  0  0  0
 16 32  1  0  0  0  0
M  END
$$$$
