Title Card Required
 OpenBabel03192317533D

 70 76  0  0  1  0  0  0  0  0999 V2000
   -0.8797    0.5859   -1.1064 O   0  0  0  0  0  0  0  0  0  0  0  0
   -1.6506    0.7462    0.3937 P   0  0  0  0  0  0  0  0  0  0  0  0
   -0.3146    0.4074    1.3476 O   0  0  0  0  0  0  0  0  0  0  0  0
    0.7389    1.2707    1.2333 C   0  0  0  0  0  0  0  0  0  0  0  0
    1.6171    1.1394    0.1745 C   0  0  0  0  0  0  0  0  0  0  0  0
    1.4338    0.0215   -0.7870 C   0  0  0  0  0  0  0  0  0  0  0  0
    0.2099   -0.1688   -1.4100 C   0  0  0  0  0  0  0  0  0  0  0  0
    0.8910    2.2781    2.2176 C   0  0  0  0  0  0  0  0  0  0  0  0
    1.9245    3.1710    2.1229 C   0  0  0  0  0  0  0  0  0  0  0  0
    2.8230    3.1245    1.0215 C   0  0  0  0  0  0  0  0  0  0  0  0
    3.8640    4.0826    0.8822 C   0  0  0  0  0  0  0  0  0  0  0  0
    4.7007    4.0630   -0.2058 C   0  0  0  0  0  0  0  0  0  0  0  0
    4.5202    3.0841   -1.2126 C   0  0  0  0  0  0  0  0  0  0  0  0
    3.5295    2.1386   -1.1011 C   0  0  0  0  0  0  0  0  0  0  0  0
    2.6612    2.1151    0.0269 C   0  0  0  0  0  0  0  0  0  0  0  0
    0.0593   -1.1200   -2.4540 C   0  0  0  0  0  0  0  0  0  0  0  0
    1.0916   -1.9539   -2.7890 C   0  0  0  0  0  0  0  0  0  0  0  0
    2.3191   -1.9017   -2.0724 C   0  0  0  0  0  0  0  0  0  0  0  0
    3.3596   -2.8376   -2.3210 C   0  0  0  0  0  0  0  0  0  0  0  0
    4.5253   -2.8064   -1.5956 C   0  0  0  0  0  0  0  0  0  0  0  0
    4.6958   -1.8301   -0.5841 C   0  0  0  0  0  0  0  0  0  0  0  0
    3.7120   -0.9051   -0.3297 C   0  0  0  0  0  0  0  0  0  0  0  0
    2.4955   -0.9038   -1.0697 C   0  0  0  0  0  0  0  0  0  0  0  0
   -2.5410   -0.6624    0.6704 N   0  0  0  0  0  0  0  0  0  0  0  0
   -4.0011   -0.4342    0.7951 C   0  0  1  0  0  0  0  0  0  0  0  0
   -4.3632   -0.0207    2.2178 C   0  0  0  0  0  0  0  0  0  0  0  0
   -4.5480    0.4903   -0.2894 C   0  0  0  0  0  0  0  0  0  0  0  0
   -4.2220    0.2322   -1.6286 C   0  0  0  0  0  0  0  0  0  0  0  0
   -4.7243    1.0270   -2.6526 C   0  0  0  0  0  0  0  0  0  0  0  0
   -5.5656    2.1014   -2.3572 C   0  0  0  0  0  0  0  0  0  0  0  0
   -5.8952    2.3674   -1.0319 C   0  0  0  0  0  0  0  0  0  0  0  0
   -5.3904    1.5669   -0.0052 C   0  0  0  0  0  0  0  0  0  0  0  0
   -2.1641   -2.0890    0.8093 C   0  0  1  0  0  0  0  0  0  0  0  0
   -2.3807   -2.8438   -0.4989 C   0  0  0  0  0  0  0  0  0  0  0  0
   -0.7996   -2.3256    1.4351 C   0  0  0  0  0  0  0  0  0  0  0  0
   -0.6363   -2.0695    2.8016 C   0  0  0  0  0  0  0  0  0  0  0  0
    0.5940   -2.2525    3.4199 C   0  0  0  0  0  0  0  0  0  0  0  0
    1.6867   -2.7090    2.6774 C   0  0  0  0  0  0  0  0  0  0  0  0
    1.5290   -2.9924    1.3247 C   0  0  0  0  0  0  0  0  0  0  0  0
    0.2891   -2.8046    0.7083 C   0  0  0  0  0  0  0  0  0  0  0  0
    0.1735    2.3069    3.0380 H   0  0  0  0  0  0  0  0  0  0  0  0
    2.0594    3.9443    2.8816 H   0  0  0  0  0  0  0  0  0  0  0  0
    3.9788    4.8430    1.6576 H   0  0  0  0  0  0  0  0  0  0  0  0
    5.4934    4.8058   -0.3048 H   0  0  0  0  0  0  0  0  0  0  0  0
    5.1688    3.0845   -2.0899 H   0  0  0  0  0  0  0  0  0  0  0  0
    3.3954    1.3983   -1.8895 H   0  0  0  0  0  0  0  0  0  0  0  0
   -0.8973   -1.1495   -2.9770 H   0  0  0  0  0  0  0  0  0  0  0  0
    0.9758   -2.6854   -3.5913 H   0  0  0  0  0  0  0  0  0  0  0  0
    3.2081   -3.5914   -3.0966 H   0  0  0  0  0  0  0  0  0  0  0  0
    5.3143   -3.5345   -1.7886 H   0  0  0  0  0  0  0  0  0  0  0  0
    5.6132   -1.8178    0.0065 H   0  0  0  0  0  0  0  0  0  0  0  0
    3.8485   -0.1725    0.4656 H   0  0  0  0  0  0  0  0  0  0  0  0
   -4.4682   -1.4143    0.6037 H   0  0  0  0  0  0  0  0  0  0  0  0
   -3.9552    0.9761    2.4440 H   0  0  0  0  0  0  0  0  0  0  0  0
   -5.4509   -0.0012    2.3736 H   0  0  0  0  0  0  0  0  0  0  0  0
   -3.9288   -0.7383    2.9281 H   0  0  0  0  0  0  0  0  0  0  0  0
   -3.5441   -0.5917   -1.8616 H   0  0  0  0  0  0  0  0  0  0  0  0
   -4.4549    0.8115   -3.6878 H   0  0  0  0  0  0  0  0  0  0  0  0
   -5.9569    2.7302   -3.1581 H   0  0  0  0  0  0  0  0  0  0  0  0
   -6.5463    3.2083   -0.7877 H   0  0  0  0  0  0  0  0  0  0  0  0
   -5.6564    1.7999    1.0260 H   0  0  0  0  0  0  0  0  0  0  0  0
   -2.8826   -2.4924    1.5444 H   0  0  0  0  0  0  0  0  0  0  0  0
   -1.7188   -2.4564   -1.2842 H   0  0  0  0  0  0  0  0  0  0  0  0
   -2.1765   -3.9158   -0.3678 H   0  0  0  0  0  0  0  0  0  0  0  0
   -3.4198   -2.7308   -0.8407 H   0  0  0  0  0  0  0  0  0  0  0  0
   -1.4862   -1.6929    3.3771 H   0  0  0  0  0  0  0  0  0  0  0  0
    0.7067   -2.0389    4.4841 H   0  0  0  0  0  0  0  0  0  0  0  0
    2.6569   -2.8491    3.1572 H   0  0  0  0  0  0  0  0  0  0  0  0
    2.3748   -3.3480    0.7315 H   0  0  0  0  0  0  0  0  0  0  0  0
    0.1918   -3.0196   -0.3572 H   0  0  0  0  0  0  0  0  0  0  0  0
  1  2  1  0  0  0  0
  1  7  1  0  0  0  0
  2  3  1  0  0  0  0
  2 24  1  0  0  0  0
  3  4  1  0  0  0  0
  4  5  2  0  0  0  0
  4  8  1  0  0  0  0
  5  6  1  0  0  0  0
  5 15  1  0  0  0  0
  6  7  2  0  0  0  0
  6 23  1  0  0  0  0
  7 16  1  0  0  0  0
  8  9  2  0  0  0  0
  8 41  1  0  0  0  0
  9 10  1  0  0  0  0
  9 42  1  0  0  0  0
 10 11  2  0  0  0  0
 10 15  1  0  0  0  0
 11 12  1  0  0  0  0
 11 43  1  0  0  0  0
 12 13  2  0  0  0  0
 12 44  1  0  0  0  0
 13 14  1  0  0  0  0
 13 45  1  0  0  0  0
 14 15  2  0  0  0  0
 14 46  1  0  0  0  0
 16 17  2  0  0  0  0
 16 47  1  0  0  0  0
 17 18  1  0  0  0  0
 17 48  1  0  0  0  0
 18 19  2  0  0  0  0
 18 23  1  0  0  0  0
 19 20  1  0  0  0  0
 19 49  1  0  0  0  0
 20 21  2  0  0  0  0
 20 50  1  0  0  0  0
 21 22  1  0  0  0  0
 21 51  1  0  0  0  0
 22 23  2  0  0  0  0
 22 52  1  0  0  0  0
 24 25  1  0  0  0  0
 24 33  1  0  0  0  0
 25 26  1  0  0  0  0
 25 27  1  0  0  0  0
 25 53  1  6  0  0  0
 26 54  1  0  0  0  0
 26 55  1  0  0  0  0
 26 56  1  0  0  0  0
 27 28  2  0  0  0  0
 27 32  1  0  0  0  0
 28 29  1  0  0  0  0
 28 57  1  0  0  0  0
 29 30  2  0  0  0  0
 29 58  1  0  0  0  0
 30 31  1  0  0  0  0
 30 59  1  0  0  0  0
 31 32  2  0  0  0  0
 31 60  1  0  0  0  0
 32 61  1  0  0  0  0
 33 34  1  0  0  0  0
 33 35  1  0  0  0  0
 33 62  1  1  0  0  0
 34 63  1  0  0  0  0
 34 64  1  0  0  0  0
 34 65  1  0  0  0  0
 35 36  2  0  0  0  0
 35 40  1  0  0  0  0
 36 37  1  0  0  0  0
 36 66  1  0  0  0  0
 37 38  2  0  0  0  0
 37 67  1  0  0  0  0
 38 39  1  0  0  0  0
 38 68  1  0  0  0  0
 39 40  2  0  0  0  0
 39 69  1  0  0  0  0
 40 70  1  0  0  0  0
M  END
$$$$
