Title Card Required
 OpenBabel03192317413D

 40 41  0  0  1  0  0  0  0  0999 V2000
    1.7503    0.2249   -0.7062 C   0  0  1  0  0  0  0  0  0  0  0  0
    2.1122   -1.1007   -0.2314 N   0  0  0  0  0  0  0  0  0  0  0  0
    1.0338   -1.9079   -0.0109 C   0  0  0  0  0  0  0  0  0  0  0  0
   -0.2091   -1.0963   -0.3374 C   0  0  2  0  0  0  0  0  0  0  0  0
    0.3099    0.2504   -0.4701 N   0  0  0  0  0  0  0  0  0  0  0  0
    1.0608   -3.0610    0.3500 O   0  0  0  0  0  0  0  0  0  0  0  0
    3.4486   -1.6412   -0.2193 C   0  0  0  0  0  0  0  0  0  0  0  0
    2.4545    1.4089    0.0089 C   0  0  0  0  0  0  0  0  0  0  0  0
    3.9161    1.5345   -0.4366 C   0  0  0  0  0  0  0  0  0  0  0  0
    1.7217    2.6904   -0.4083 C   0  0  0  0  0  0  0  0  0  0  0  0
    2.3583    1.2312    1.5231 C   0  0  0  0  0  0  0  0  0  0  0  0
   -1.2839   -1.2386    0.7417 C   0  0  0  0  0  0  0  0  0  0  0  0
   -2.5160   -0.4387    0.4063 C   0  0  0  0  0  0  0  0  0  0  0  0
   -3.6012   -1.0292   -0.2504 C   0  0  0  0  0  0  0  0  0  0  0  0
   -4.7156   -0.2733   -0.6127 C   0  0  0  0  0  0  0  0  0  0  0  0
   -4.7595    1.0901   -0.3252 C   0  0  0  0  0  0  0  0  0  0  0  0
   -3.6835    1.6907    0.3284 C   0  0  0  0  0  0  0  0  0  0  0  0
   -2.5717    0.9319    0.6907 C   0  0  0  0  0  0  0  0  0  0  0  0
    2.0029    0.3023   -1.7895 H   0  0  0  0  0  0  0  0  0  0  0  0
   -0.6094   -1.5048   -1.2878 H   0  0  0  0  0  0  0  0  0  0  0  0
   -0.1900    0.8141   -1.1485 H   0  0  0  0  0  0  0  0  0  0  0  0
    4.0387   -1.2783    0.6359 H   0  0  0  0  0  0  0  0  0  0  0  0
    3.3553   -2.7317   -0.1368 H   0  0  0  0  0  0  0  0  0  0  0  0
    3.9794   -1.3859   -1.1495 H   0  0  0  0  0  0  0  0  0  0  0  0
    3.9932    1.5809   -1.5347 H   0  0  0  0  0  0  0  0  0  0  0  0
    4.3467    2.4637   -0.0344 H   0  0  0  0  0  0  0  0  0  0  0  0
    4.5429    0.7063   -0.0834 H   0  0  0  0  0  0  0  0  0  0  0  0
    0.6851    2.6880   -0.0444 H   0  0  0  0  0  0  0  0  0  0  0  0
    2.2310    3.5698    0.0120 H   0  0  0  0  0  0  0  0  0  0  0  0
    1.7109    2.8044   -1.5052 H   0  0  0  0  0  0  0  0  0  0  0  0
    1.3084    1.0905    1.8185 H   0  0  0  0  0  0  0  0  0  0  0  0
    2.9309    0.3555    1.8626 H   0  0  0  0  0  0  0  0  0  0  0  0
    2.7528    2.1188    2.0399 H   0  0  0  0  0  0  0  0  0  0  0  0
   -1.5199   -2.3081    0.8403 H   0  0  0  0  0  0  0  0  0  0  0  0
   -0.8539   -0.8969    1.6954 H   0  0  0  0  0  0  0  0  0  0  0  0
   -3.5734   -2.0987   -0.4737 H   0  0  0  0  0  0  0  0  0  0  0  0
   -5.5554   -0.7534   -1.1181 H   0  0  0  0  0  0  0  0  0  0  0  0
   -5.6322    1.6825   -0.6047 H   0  0  0  0  0  0  0  0  0  0  0  0
   -3.7126    2.7564    0.5621 H   0  0  0  0  0  0  0  0  0  0  0  0
   -1.7283    1.4005    1.2029 H   0  0  0  0  0  0  0  0  0  0  0  0
  1  2  1  0  0  0  0
  1  5  1  0  0  0  0
  1  8  1  0  0  0  0
  1 19  1  6  0  0  0
  2  3  1  0  0  0  0
  2  7  1  0  0  0  0
  3  4  1  0  0  0  0
  3  6  2  0  0  0  0
  4  5  1  0  0  0  0
  4 12  1  0  0  0  0
  4 20  1  6  0  0  0
  5 21  1  0  0  0  0
  7 22  1  0  0  0  0
  7 23  1  0  0  0  0
  7 24  1  0  0  0  0
  8  9  1  0  0  0  0
  8 10  1  0  0  0  0
  8 11  1  0  0  0  0
  9 25  1  0  0  0  0
  9 26  1  0  0  0  0
  9 27  1  0  0  0  0
 10 28  1  0  0  0  0
 10 29  1  0  0  0  0
 10 30  1  0  0  0  0
 11 31  1  0  0  0  0
 11 32  1  0  0  0  0
 11 33  1  0  0  0  0
 12 13  1  0  0  0  0
 12 34  1  0  0  0  0
 12 35  1  0  0  0  0
 13 14  2  0  0  0  0
 13 18  1  0  0  0  0
 14 15  1  0  0  0  0
 14 36  1  0  0  0  0
 15 16  2  0  0  0  0
 15 37  1  0  0  0  0
 16 17  1  0  0  0  0
 16 38  1  0  0  0  0
 17 18  2  0  0  0  0
 17 39  1  0  0  0  0
 18 40  1  0  0  0  0
M  END
$$$$
