Title Card Required
 OpenBabel03192317483D

 69 76  0  0  1  0  0  0  0  0999 V2000
    1.6076    1.3115   -0.8584 O   0  0  0  0  0  0  0  0  0  0  0  0
    0.6869    0.3946   -0.4748 C   0  0  0  0  0  0  0  0  0  0  0  0
    0.6641   -0.7212   -1.0714 N   0  0  0  0  0  0  0  0  0  0  0  0
    1.7309   -0.6858   -2.0693 C   0  0  1  0  0  0  0  0  0  0  0  0
    2.3412    0.7458   -1.9515 C   0  0  2  0  0  0  0  0  0  0  0  0
   -0.1695    0.7662    0.7143 C   0  0  0  0  0  0  0  0  0  0  0  0
   -3.4458    0.1408   -0.7723 C   0  0  1  0  0  0  0  0  0  0  0  0
   -3.7087   -0.1803    0.7321 C   0  0  2  0  0  0  0  0  0  0  0  0
   -2.4290    0.0678    1.3968 N   0  0  0  0  0  0  0  0  0  0  0  0
   -1.6005    0.3445    0.4775 C   0  0  0  0  0  0  0  0  0  0  0  0
   -2.0374    0.3957   -0.7942 O   0  0  0  0  0  0  0  0  0  0  0  0
   -3.8053   -1.1103   -1.5902 C   0  0  0  0  0  0  0  0  0  0  0  0
   -4.1176   -2.1661   -0.5553 C   0  0  0  0  0  0  0  0  0  0  0  0
   -4.0885   -1.6432    0.7383 C   0  0  0  0  0  0  0  0  0  0  0  0
    2.8785   -1.6071   -1.7280 C   0  0  0  0  0  0  0  0  0  0  0  0
    4.0491   -0.8897   -1.4769 C   0  0  0  0  0  0  0  0  0  0  0  0
    3.8369    0.5983   -1.6260 C   0  0  0  0  0  0  0  0  0  0  0  0
   -4.4192   -3.5129   -0.7559 C   0  0  0  0  0  0  0  0  0  0  0  0
   -4.6817   -4.3220    0.3493 C   0  0  0  0  0  0  0  0  0  0  0  0
   -4.6412   -3.7948    1.6437 C   0  0  0  0  0  0  0  0  0  0  0  0
   -4.3400   -2.4488    1.8459 C   0  0  0  0  0  0  0  0  0  0  0  0
    2.8422   -2.9935   -1.5984 C   0  0  0  0  0  0  0  0  0  0  0  0
    4.0070   -3.6643   -1.2274 C   0  0  0  0  0  0  0  0  0  0  0  0
    5.1882   -2.9528   -0.9949 C   0  0  0  0  0  0  0  0  0  0  0  0
    5.2168   -1.5635   -1.1194 C   0  0  0  0  0  0  0  0  0  0  0  0
    0.3719   -0.0104    1.9458 C   0  0  0  0  0  0  0  0  0  0  0  0
    1.8127    0.2899    2.2737 C   0  0  0  0  0  0  0  0  0  0  0  0
    2.1555    1.3494    3.1232 C   0  0  0  0  0  0  0  0  0  0  0  0
    3.4893    1.6400    3.4036 C   0  0  0  0  0  0  0  0  0  0  0  0
    4.5054    0.8652    2.8448 C   0  0  0  0  0  0  0  0  0  0  0  0
    4.1774   -0.2013    2.0087 C   0  0  0  0  0  0  0  0  0  0  0  0
    2.8415   -0.4846    1.7242 C   0  0  0  0  0  0  0  0  0  0  0  0
   -0.1741    2.2969    0.9905 C   0  0  0  0  0  0  0  0  0  0  0  0
   -1.0089    3.1138    0.0314 C   0  0  0  0  0  0  0  0  0  0  0  0
   -2.3625    3.3443    0.3097 C   0  0  0  0  0  0  0  0  0  0  0  0
   -3.1641    4.0591   -0.5782 C   0  0  0  0  0  0  0  0  0  0  0  0
   -2.6201    4.5619   -1.7600 C   0  0  0  0  0  0  0  0  0  0  0  0
   -1.2710    4.3505   -2.0401 C   0  0  0  0  0  0  0  0  0  0  0  0
   -0.4719    3.6322   -1.1516 C   0  0  0  0  0  0  0  0  0  0  0  0
    1.3133   -0.9066   -3.0636 H   0  0  0  0  0  0  0  0  0  0  0  0
    2.1580    1.3799   -2.8293 H   0  0  0  0  0  0  0  0  0  0  0  0
   -3.9451    1.0506   -1.1326 H   0  0  0  0  0  0  0  0  0  0  0  0
   -4.4904    0.4469    1.1880 H   0  0  0  0  0  0  0  0  0  0  0  0
   -4.6699   -0.9224   -2.2447 H   0  0  0  0  0  0  0  0  0  0  0  0
   -2.9563   -1.3886   -2.2314 H   0  0  0  0  0  0  0  0  0  0  0  0
    4.4657    1.0201   -2.4245 H   0  0  0  0  0  0  0  0  0  0  0  0
    4.0699    1.1389   -0.6953 H   0  0  0  0  0  0  0  0  0  0  0  0
   -4.4451   -3.9312   -1.7642 H   0  0  0  0  0  0  0  0  0  0  0  0
   -4.9164   -5.3776    0.2029 H   0  0  0  0  0  0  0  0  0  0  0  0
   -4.8430   -4.4425    2.4983 H   0  0  0  0  0  0  0  0  0  0  0  0
   -4.2903   -2.0299    2.8526 H   0  0  0  0  0  0  0  0  0  0  0  0
    1.9118   -3.5369   -1.7730 H   0  0  0  0  0  0  0  0  0  0  0  0
    3.9990   -4.7498   -1.1180 H   0  0  0  0  0  0  0  0  0  0  0  0
    6.0946   -3.4902   -0.7109 H   0  0  0  0  0  0  0  0  0  0  0  0
    6.1390   -1.0111   -0.9262 H   0  0  0  0  0  0  0  0  0  0  0  0
   -0.2860    0.2288    2.7924 H   0  0  0  0  0  0  0  0  0  0  0  0
    0.2524   -1.0812    1.7302 H   0  0  0  0  0  0  0  0  0  0  0  0
    1.3633    1.9490    3.5775 H   0  0  0  0  0  0  0  0  0  0  0  0
    3.7361    2.4698    4.0681 H   0  0  0  0  0  0  0  0  0  0  0  0
    5.5502    1.0852    3.0706 H   0  0  0  0  0  0  0  0  0  0  0  0
    4.9607   -0.8264    1.5767 H   0  0  0  0  0  0  0  0  0  0  0  0
    2.5905   -1.3239    1.0693 H   0  0  0  0  0  0  0  0  0  0  0  0
   -0.5806    2.4238    2.0047 H   0  0  0  0  0  0  0  0  0  0  0  0
    0.8664    2.6473    0.9944 H   0  0  0  0  0  0  0  0  0  0  0  0
   -2.7886    2.9499    1.2363 H   0  0  0  0  0  0  0  0  0  0  0  0
   -4.2160    4.2324   -0.3428 H   0  0  0  0  0  0  0  0  0  0  0  0
   -3.2436    5.1268   -2.4548 H   0  0  0  0  0  0  0  0  0  0  0  0
   -0.8360    4.7515   -2.9573 H   0  0  0  0  0  0  0  0  0  0  0  0
    0.5831    3.4619   -1.3704 H   0  0  0  0  0  0  0  0  0  0  0  0
  1  2  1  0  0  0  0
  1  5  1  0  0  0  0
  2  3  2  0  0  0  0
  2  6  1  0  0  0  0
  3  4  1  0  0  0  0
  4  5  1  0  0  0  0
  4 15  1  0  0  0  0
  4 40  1  6  0  0  0
  5 17  1  0  0  0  0
  5 41  1  6  0  0  0
  6 10  1  0  0  0  0
  6 26  1  0  0  0  0
  6 33  1  0  0  0  0
  7  8  1  0  0  0  0
  7 11  1  0  0  0  0
  7 12  1  0  0  0  0
  7 42  1  6  0  0  0
  8  9  1  0  0  0  0
  8 14  1  0  0  0  0
  8 43  1  1  0  0  0
  9 10  2  0  0  0  0
 10 11  1  0  0  0  0
 12 13  1  0  0  0  0
 12 44  1  0  0  0  0
 12 45  1  0  0  0  0
 13 14  2  0  0  0  0
 13 18  1  0  0  0  0
 14 21  1  0  0  0  0
 15 16  2  0  0  0  0
 15 22  1  0  0  0  0
 16 17  1  0  0  0  0
 16 25  1  0  0  0  0
 17 46  1  0  0  0  0
 17 47  1  0  0  0  0
 18 19  2  0  0  0  0
 18 48  1  0  0  0  0
 19 20  1  0  0  0  0
 19 49  1  0  0  0  0
 20 21  2  0  0  0  0
 20 50  1  0  0  0  0
 21 51  1  0  0  0  0
 22 23  2  0  0  0  0
 22 52  1  0  0  0  0
 23 24  1  0  0  0  0
 23 53  1  0  0  0  0
 24 25  2  0  0  0  0
 24 54  1  0  0  0  0
 25 55  1  0  0  0  0
 26 27  1  0  0  0  0
 26 56  1  0  0  0  0
 26 57  1  0  0  0  0
 27 28  2  0  0  0  0
 27 32  1  0  0  0  0
 28 29  1  0  0  0  0
 28 58  1  0  0  0  0
 29 30  2  0  0  0  0
 29 59  1  0  0  0  0
 30 31  1  0  0  0  0
 30 60  1  0  0  0  0
 31 32  2  0  0  0  0
 31 61  1  0  0  0  0
 32 62  1  0  0  0  0
 33 34  1  0  0  0  0
 33 63  1  0  0  0  0
 33 64  1  0  0  0  0
 34 35  2  0  0  0  0
 34 39  1  0  0  0  0
 35 36  1  0  0  0  0
 35 65  1  0  0  0  0
 36 37  2  0  0  0  0
 36 66  1  0  0  0  0
 37 38  1  0  0  0  0
 37 67  1  0  0  0  0
 38 39  2  0  0  0  0
 38 68  1  0  0  0  0
 39 69  1  0  0  0  0
M  END
$$$$
