Title Card Required
 OpenBabel03192317433D

 45 48  0  0  1  0  0  0  0  0999 V2000
   -1.8099    2.3967   -1.2776 O   0  0  0  0  0  0  0  0  0  0  0  0
   -0.8675    1.5816   -0.7574 C   0  0  0  0  0  0  0  0  0  0  0  0
   -1.1174    0.3372   -0.7113 N   0  0  0  0  0  0  0  0  0  0  0  0
   -2.4521    0.1363   -1.2677 C   0  0  2  0  0  0  0  0  0  0  0  0
   -2.9597    1.5841   -1.5247 C   0  0  0  0  0  0  0  0  0  0  0  0
    0.3738    2.2351   -0.3037 C   0  0  0  0  0  0  0  0  0  0  0  0
    1.2376    1.6323    0.6214 C   0  0  0  0  0  0  0  0  0  0  0  0
    2.3723    2.3010    1.0689 C   0  0  0  0  0  0  0  0  0  0  0  0
    2.6826    3.5591    0.5596 C   0  0  0  0  0  0  0  0  0  0  0  0
    1.8373    4.1659   -0.3699 C   0  0  0  0  0  0  0  0  0  0  0  0
    0.6826    3.5134   -0.7876 C   0  0  0  0  0  0  0  0  0  0  0  0
    0.9048    0.0412    1.4768 S   0  0  2  0  0  0  0  0  0  0  0  0
    1.6754    0.1475    2.7631 O   0  0  0  0  0  0  0  0  0  0  0  0
    1.9561   -1.0035    0.4145 C   0  0  0  0  0  0  0  0  0  0  0  0
    3.0663   -1.5618    1.0362 C   0  0  0  0  0  0  0  0  0  0  0  0
    3.6372   -2.7033   -1.0346 C   0  0  0  0  0  0  0  0  0  0  0  0
    1.6583   -1.2865   -0.9192 C   0  0  0  0  0  0  0  0  0  0  0  0
    3.9022   -2.4059    0.3044 C   0  0  0  0  0  0  0  0  0  0  0  0
    2.5059   -2.1283   -1.6313 C   0  0  0  0  0  0  0  0  0  0  0  0
    4.5228   -3.6361   -1.8176 C   0  0  0  0  0  0  0  0  0  0  0  0
   -3.3611   -0.6709   -0.3654 C   0  0  0  0  0  0  0  0  0  0  0  0
   -2.9638   -1.0443    0.9196 C   0  0  0  0  0  0  0  0  0  0  0  0
   -3.8336   -1.7638    1.7398 C   0  0  0  0  0  0  0  0  0  0  0  0
   -5.1026   -2.1149    1.2850 C   0  0  0  0  0  0  0  0  0  0  0  0
   -5.5026   -1.7466   -0.0003 C   0  0  0  0  0  0  0  0  0  0  0  0
   -4.6342   -1.0314   -0.8209 C   0  0  0  0  0  0  0  0  0  0  0  0
   -2.3469   -0.4108   -2.2204 H   0  0  0  0  0  0  0  0  0  0  0  0
   -3.3023    1.7589   -2.5522 H   0  0  0  0  0  0  0  0  0  0  0  0
   -3.7527    1.8717   -0.8190 H   0  0  0  0  0  0  0  0  0  0  0  0
    2.9818    1.8210    1.8379 H   0  0  0  0  0  0  0  0  0  0  0  0
    3.5809    4.0754    0.9019 H   0  0  0  0  0  0  0  0  0  0  0  0
    2.0709    5.1575   -0.7594 H   0  0  0  0  0  0  0  0  0  0  0  0
   -0.0035    3.9838   -1.4919 H   0  0  0  0  0  0  0  0  0  0  0  0
    3.2573   -1.3237    2.0842 H   0  0  0  0  0  0  0  0  0  0  0  0
    0.7750   -0.8497   -1.3842 H   0  0  0  0  0  0  0  0  0  0  0  0
    4.7782   -2.8439    0.7881 H   0  0  0  0  0  0  0  0  0  0  0  0
    2.2839   -2.3480   -2.6785 H   0  0  0  0  0  0  0  0  0  0  0  0
    4.0480   -4.6233   -1.9283 H   0  0  0  0  0  0  0  0  0  0  0  0
    4.7120   -3.2478   -2.8282 H   0  0  0  0  0  0  0  0  0  0  0  0
    5.4890   -3.7831   -1.3175 H   0  0  0  0  0  0  0  0  0  0  0  0
   -1.9652   -0.7732    1.2657 H   0  0  0  0  0  0  0  0  0  0  0  0
   -3.5127   -2.0536    2.7416 H   0  0  0  0  0  0  0  0  0  0  0  0
   -5.7797   -2.6789    1.9282 H   0  0  0  0  0  0  0  0  0  0  0  0
   -6.4927   -2.0234   -0.3660 H   0  0  0  0  0  0  0  0  0  0  0  0
   -4.9483   -0.7533   -1.8310 H   0  0  0  0  0  0  0  0  0  0  0  0
  1  2  1  0  0  0  0
  1  5  1  0  0  0  0
  2  3  2  0  0  0  0
  2  6  1  0  0  0  0
  3  4  1  0  0  0  0
  4  5  1  0  0  0  0
  4 21  1  0  0  0  0
  4 27  1  6  0  0  0
  5 28  1  0  0  0  0
  5 29  1  0  0  0  0
  6  7  2  0  0  0  0
  6 11  1  0  0  0  0
  7  8  1  0  0  0  0
  7 12  1  0  0  0  0
  8  9  2  0  0  0  0
  8 30  1  0  0  0  0
  9 10  1  0  0  0  0
  9 31  1  0  0  0  0
 10 11  2  0  0  0  0
 10 32  1  0  0  0  0
 11 33  1  0  0  0  0
 12 13  2  1  0  0  0
 12 14  1  0  0  0  0
 14 15  2  0  0  0  0
 14 17  1  0  0  0  0
 15 18  1  0  0  0  0
 15 34  1  0  0  0  0
 16 18  2  0  0  0  0
 16 19  1  0  0  0  0
 16 20  1  0  0  0  0
 17 19  2  0  0  0  0
 17 35  1  0  0  0  0
 18 36  1  0  0  0  0
 19 37  1  0  0  0  0
 20 38  1  0  0  0  0
 20 39  1  0  0  0  0
 20 40  1  0  0  0  0
 21 22  2  0  0  0  0
 21 26  1  0  0  0  0
 22 23  1  0  0  0  0
 22 41  1  0  0  0  0
 23 24  2  0  0  0  0
 23 42  1  0  0  0  0
 24 25  1  0  0  0  0
 24 43  1  0  0  0  0
 25 26  2  0  0  0  0
 25 44  1  0  0  0  0
 26 45  1  0  0  0  0
M  END
$$$$
