Title Card Required
 OpenBabel03192317473D

 64 69  0  0  0  0  0  0  0  0999 V2000
    2.1090   -2.1685   -1.1166 C   0  0  0  0  0  0  0  0  0  0  0  0
    0.8534   -1.5389   -1.1305 C   0  0  0  0  0  0  0  0  0  0  0  0
    0.6603   -0.3489   -0.4048 C   0  0  0  0  0  0  0  0  0  0  0  0
    1.7162    0.2086    0.3265 C   0  0  0  0  0  0  0  0  0  0  0  0
    2.9768   -0.4165    0.3533 C   0  0  0  0  0  0  0  0  0  0  0  0
    3.1428   -1.5917   -0.3792 C   0  0  0  0  0  0  0  0  0  0  0  0
    2.3697   -3.4494   -1.8845 C   0  0  0  0  0  0  0  0  0  0  0  0
    1.0869   -4.1817   -2.2618 C   0  0  0  0  0  0  0  0  0  0  0  0
    0.1117   -3.2026   -2.9053 C   0  0  0  0  0  0  0  0  0  0  0  0
   -0.3070   -2.1316   -1.9025 C   0  0  0  0  0  0  0  0  0  0  0  0
   -0.6602    0.3482   -0.4051 C   0  0  0  0  0  0  0  0  0  0  0  0
   -0.8531    1.5378   -1.1315 C   0  0  0  0  0  0  0  0  0  0  0  0
   -2.1087    2.1675   -1.1183 C   0  0  0  0  0  0  0  0  0  0  0  0
   -3.1427    1.5913   -0.3805 C   0  0  0  0  0  0  0  0  0  0  0  0
   -2.9768    0.4166    0.3528 C   0  0  0  0  0  0  0  0  0  0  0  0
   -1.7163   -0.2086    0.3265 C   0  0  0  0  0  0  0  0  0  0  0  0
    0.3074    2.1300   -1.9038 C   0  0  0  0  0  0  0  0  0  0  0  0
   -0.1111    3.2003   -2.9074 C   0  0  0  0  0  0  0  0  0  0  0  0
   -1.0863    4.1799   -2.2646 C   0  0  0  0  0  0  0  0  0  0  0  0
   -2.3692    3.4478   -1.8870 C   0  0  0  0  0  0  0  0  0  0  0  0
    1.4779    1.3726    0.9818 O   0  0  0  0  0  0  0  0  0  0  0  0
   -1.4781   -1.3722    0.9828 O   0  0  0  0  0  0  0  0  0  0  0  0
    4.1064    0.1553    1.1332 C   0  0  0  0  0  0  0  0  0  0  0  0
   -4.1066   -0.1545    1.1330 C   0  0  0  0  0  0  0  0  0  0  0  0
    3.9520    0.5156    2.4818 C   0  0  0  0  0  0  0  0  0  0  0  0
    5.0223    1.0361    3.2083 C   0  0  0  0  0  0  0  0  0  0  0  0
    6.2676    1.1982    2.6032 C   0  0  0  0  0  0  0  0  0  0  0  0
    5.3655    0.3243    0.5382 C   0  0  0  0  0  0  0  0  0  0  0  0
   -5.3658   -0.3229    0.5382 C   0  0  0  0  0  0  0  0  0  0  0  0
   -6.4364   -0.8347    1.2668 C   0  0  0  0  0  0  0  0  0  0  0  0
   -6.2683   -1.1955    2.6037 C   0  0  0  0  0  0  0  0  0  0  0  0
   -5.0229   -1.0339    3.2086 C   0  0  0  0  0  0  0  0  0  0  0  0
   -3.9523   -0.5144    2.4818 C   0  0  0  0  0  0  0  0  0  0  0  0
    6.4358    0.8370    1.2665 C   0  0  0  0  0  0  0  0  0  0  0  0
    4.1163   -2.0894   -0.3478 H   0  0  0  0  0  0  0  0  0  0  0  0
    2.9264   -3.2073   -2.8072 H   0  0  0  0  0  0  0  0  0  0  0  0
    3.0304   -4.0988   -1.2903 H   0  0  0  0  0  0  0  0  0  0  0  0
    0.6248   -4.6132   -1.3575 H   0  0  0  0  0  0  0  0  0  0  0  0
    1.3141   -5.0186   -2.9385 H   0  0  0  0  0  0  0  0  0  0  0  0
   -0.7797   -3.7225   -3.2855 H   0  0  0  0  0  0  0  0  0  0  0  0
    0.6003   -2.7305   -3.7751 H   0  0  0  0  0  0  0  0  0  0  0  0
   -1.0097   -2.5634   -1.1689 H   0  0  0  0  0  0  0  0  0  0  0  0
   -0.8596   -1.3225   -2.4040 H   0  0  0  0  0  0  0  0  0  0  0  0
   -4.1160    2.0891   -0.3496 H   0  0  0  0  0  0  0  0  0  0  0  0
    1.0100    2.5623   -1.1703 H   0  0  0  0  0  0  0  0  0  0  0  0
    0.8602    1.3205   -2.4046 H   0  0  0  0  0  0  0  0  0  0  0  0
    0.7804    3.7200   -3.2877 H   0  0  0  0  0  0  0  0  0  0  0  0
   -0.5995    2.7277   -3.7769 H   0  0  0  0  0  0  0  0  0  0  0  0
   -0.6244    4.6120   -1.3606 H   0  0  0  0  0  0  0  0  0  0  0  0
   -1.3135    5.0162   -2.9420 H   0  0  0  0  0  0  0  0  0  0  0  0
   -2.9257    3.2051   -2.8097 H   0  0  0  0  0  0  0  0  0  0  0  0
   -3.0300    4.0977   -1.2934 H   0  0  0  0  0  0  0  0  0  0  0  0
    2.3076    1.7154    1.3383 H   0  0  0  0  0  0  0  0  0  0  0  0
   -2.3081   -1.7155    1.3378 H   0  0  0  0  0  0  0  0  0  0  0  0
    2.9859    0.3619    2.9689 H   0  0  0  0  0  0  0  0  0  0  0  0
    4.8841    1.3030    4.2573 H   0  0  0  0  0  0  0  0  0  0  0  0
    7.1056    1.6034    3.1721 H   0  0  0  0  0  0  0  0  0  0  0  0
    5.4940    0.0580   -0.5128 H   0  0  0  0  0  0  0  0  0  0  0  0
   -5.4943   -0.0569   -0.5128 H   0  0  0  0  0  0  0  0  0  0  0  0
   -7.4079   -0.9604    0.7857 H   0  0  0  0  0  0  0  0  0  0  0  0
   -7.1066   -1.5999    3.1728 H   0  0  0  0  0  0  0  0  0  0  0  0
   -4.8847   -1.3006    4.2576 H   0  0  0  0  0  0  0  0  0  0  0  0
   -2.9860   -0.3613    2.9687 H   0  0  0  0  0  0  0  0  0  0  0  0
    7.4071    0.9632    0.7852 H   0  0  0  0  0  0  0  0  0  0  0  0
  1  2  2  0  0  0  0
  1  6  1  0  0  0  0
  1  7  1  0  0  0  0
  2  3  1  0  0  0  0
  2 10  1  0  0  0  0
  3  4  2  0  0  0  0
  3 11  1  0  0  0  0
  4  5  1  0  0  0  0
  4 21  1  0  0  0  0
  5  6  2  0  0  0  0
  5 23  1  0  0  0  0
  6 35  1  0  0  0  0
  7  8  1  0  0  0  0
  7 36  1  0  0  0  0
  7 37  1  0  0  0  0
  8  9  1  0  0  0  0
  8 38  1  0  0  0  0
  8 39  1  0  0  0  0
  9 10  1  0  0  0  0
  9 40  1  0  0  0  0
  9 41  1  0  0  0  0
 10 42  1  0  0  0  0
 10 43  1  0  0  0  0
 11 12  2  0  0  0  0
 11 16  1  0  0  0  0
 12 13  1  0  0  0  0
 12 17  1  0  0  0  0
 13 14  2  0  0  0  0
 13 20  1  0  0  0  0
 14 15  1  0  0  0  0
 14 44  1  0  0  0  0
 15 16  2  0  0  0  0
 15 24  1  0  0  0  0
 16 22  1  0  0  0  0
 17 18  1  0  0  0  0
 17 45  1  0  0  0  0
 17 46  1  0  0  0  0
 18 19  1  0  0  0  0
 18 47  1  0  0  0  0
 18 48  1  0  0  0  0
 19 20  1  0  0  0  0
 19 49  1  0  0  0  0
 19 50  1  0  0  0  0
 20 51  1  0  0  0  0
 20 52  1  0  0  0  0
 21 53  1  0  0  0  0
 22 54  1  0  0  0  0
 23 25  2  0  0  0  0
 23 28  1  0  0  0  0
 24 29  2  0  0  0  0
 24 33  1  0  0  0  0
 25 26  1  0  0  0  0
 25 55  1  0  0  0  0
 26 27  2  0  0  0  0
 26 56  1  0  0  0  0
 27 34  1  0  0  0  0
 27 57  1  0  0  0  0
 28 34  2  0  0  0  0
 28 58  1  0  0  0  0
 29 30  1  0  0  0  0
 29 59  1  0  0  0  0
 30 31  2  0  0  0  0
 30 60  1  0  0  0  0
 31 32  1  0  0  0  0
 31 61  1  0  0  0  0
 32 33  2  0  0  0  0
 32 62  1  0  0  0  0
 33 63  1  0  0  0  0
 34 64  1  0  0  0  0
M  END
$$$$
