Title Card Required
 OpenBabel03192317423D

 38 42  0  0  0  0  0  0  0  0999 V2000
   -2.0683    0.6040   -1.2067 O   0  0  0  0  0  0  0  0  0  0  0  0
   -2.7774    1.4808   -0.0406 P   0  0  0  0  0  0  0  0  0  0  0  0
   -1.6574    1.3973    1.1366 O   0  0  0  0  0  0  0  0  0  0  0  0
   -0.3322    1.6250    0.8172 C   0  0  0  0  0  0  0  0  0  0  0  0
    0.3822    0.6524    0.1445 C   0  0  0  0  0  0  0  0  0  0  0  0
   -0.2885   -0.6312   -0.1952 C   0  0  0  0  0  0  0  0  0  0  0  0
   -1.4931   -0.6045   -0.8742 C   0  0  0  0  0  0  0  0  0  0  0  0
    0.2321    2.8569    1.2142 C   0  0  0  0  0  0  0  0  0  0  0  0
    1.5444    3.1151    0.9226 C   0  0  0  0  0  0  0  0  0  0  0  0
    2.3226    2.1792    0.1881 C   0  0  0  0  0  0  0  0  0  0  0  0
    3.6699    2.4660   -0.1636 C   0  0  0  0  0  0  0  0  0  0  0  0
    4.4035    1.5863   -0.9189 C   0  0  0  0  0  0  0  0  0  0  0  0
    3.8114    0.3817   -1.3694 C   0  0  0  0  0  0  0  0  0  0  0  0
    2.5155    0.0700   -1.0360 C   0  0  0  0  0  0  0  0  0  0  0  0
    1.7373    0.9473   -0.2295 C   0  0  0  0  0  0  0  0  0  0  0  0
   -2.1839   -1.7782   -1.2547 C   0  0  0  0  0  0  0  0  0  0  0  0
   -1.6584   -3.0015   -0.9330 C   0  0  0  0  0  0  0  0  0  0  0  0
   -0.4503   -3.0983   -0.1897 C   0  0  0  0  0  0  0  0  0  0  0  0
    0.0704   -4.3639    0.1952 C   0  0  0  0  0  0  0  0  0  0  0  0
    1.2065   -4.4553    0.9592 C   0  0  0  0  0  0  0  0  0  0  0  0
    1.8654   -3.2761    1.3834 C   0  0  0  0  0  0  0  0  0  0  0  0
    1.3937   -2.0384    1.0182 C   0  0  0  0  0  0  0  0  0  0  0  0
    0.2336   -1.9092    0.2035 C   0  0  0  0  0  0  0  0  0  0  0  0
   -3.9051    0.5476    0.5886 O   0  0  0  0  0  0  0  0  0  0  0  0
   -3.2167    2.7922   -0.4953 O   0  0  0  0  0  0  0  0  0  0  0  0
   -0.4010    3.5667    1.7460 H   0  0  0  0  0  0  0  0  0  0  0  0
    2.0036    4.0565    1.2299 H   0  0  0  0  0  0  0  0  0  0  0  0
    4.1052    3.4089    0.1735 H   0  0  0  0  0  0  0  0  0  0  0  0
    5.4354    1.8180   -1.1859 H   0  0  0  0  0  0  0  0  0  0  0  0
    4.3879   -0.3024   -1.9936 H   0  0  0  0  0  0  0  0  0  0  0  0
    2.0687   -0.8555   -1.3997 H   0  0  0  0  0  0  0  0  0  0  0  0
   -3.1198   -1.6693   -1.8032 H   0  0  0  0  0  0  0  0  0  0  0  0
   -2.1715   -3.9185   -1.2286 H   0  0  0  0  0  0  0  0  0  0  0  0
   -0.4607   -5.2635   -0.1224 H   0  0  0  0  0  0  0  0  0  0  0  0
    1.5953   -5.4311    1.2531 H   0  0  0  0  0  0  0  0  0  0  0  0
    2.7536   -3.3488    2.0127 H   0  0  0  0  0  0  0  0  0  0  0  0
    1.9059   -1.1396    1.3610 H   0  0  0  0  0  0  0  0  0  0  0  0
   -3.5533   -0.2012    1.0907 H   0  0  0  0  0  0  0  0  0  0  0  0
  1  2  1  0  0  0  0
  1  7  1  0  0  0  0
  2  3  1  0  0  0  0
  2 24  1  0  0  0  0
  2 25  2  0  0  0  0
  3  4  1  0  0  0  0
  4  5  2  0  0  0  0
  4  8  1  0  0  0  0
  5  6  1  0  0  0  0
  5 15  1  0  0  0  0
  6  7  2  0  0  0  0
  6 23  1  0  0  0  0
  7 16  1  0  0  0  0
  8  9  2  0  0  0  0
  8 26  1  0  0  0  0
  9 10  1  0  0  0  0
  9 27  1  0  0  0  0
 10 11  2  0  0  0  0
 10 15  1  0  0  0  0
 11 12  1  0  0  0  0
 11 28  1  0  0  0  0
 12 13  2  0  0  0  0
 12 29  1  0  0  0  0
 13 14  1  0  0  0  0
 13 30  1  0  0  0  0
 14 15  2  0  0  0  0
 14 31  1  0  0  0  0
 16 17  2  0  0  0  0
 16 32  1  0  0  0  0
 17 18  1  0  0  0  0
 17 33  1  0  0  0  0
 18 19  2  0  0  0  0
 18 23  1  0  0  0  0
 19 20  1  0  0  0  0
 19 34  1  0  0  0  0
 20 21  2  0  0  0  0
 20 35  1  0  0  0  0
 21 22  1  0  0  0  0
 21 36  1  0  0  0  0
 22 23  2  0  0  0  0
 22 37  1  0  0  0  0
 24 38  1  0  0  0  0
M  END
$$$$
