Title Card Required
 OpenBabel03192317503D

 35 37  0  0  1  0  0  0  0  0999 V2000
    1.1760    2.0864   -0.1141 O   0  0  0  0  0  0  0  0  0  0  0  0
    0.9365    0.9585    0.5928 C   0  0  0  0  0  0  0  0  0  0  0  0
   -0.1867    0.3877    0.4464 N   0  0  0  0  0  0  0  0  0  0  0  0
   -0.9399    1.1714   -0.5349 C   0  0  2  0  0  0  0  0  0  0  0  0
   -0.0457    2.4106   -0.7774 C   0  0  0  0  0  0  0  0  0  0  0  0
    2.0790    0.4649    1.4176 C   0  0  0  0  0  0  0  0  0  0  0  0
    3.1150   -0.2312    0.5554 C   0  0  0  0  0  0  0  0  0  0  0  0
    2.7238   -1.2273   -0.3489 C   0  0  0  0  0  0  0  0  0  0  0  0
    3.7011   -1.8605   -1.1073 C   0  0  0  0  0  0  0  0  0  0  0  0
    5.0315   -1.4808   -0.9374 C   0  0  0  0  0  0  0  0  0  0  0  0
    5.3158   -0.4810   -0.0097 C   0  0  0  0  0  0  0  0  0  0  0  0
    4.3847    0.1311    0.7204 N   0  0  0  0  0  0  0  0  0  0  0  0
   -2.3464    1.5285   -0.0464 C   0  0  0  0  0  0  0  0  0  0  0  0
   -3.2810    0.3460    0.0213 C   0  0  0  0  0  0  0  0  0  0  0  0
   -3.1209   -0.6402    1.0035 C   0  0  0  0  0  0  0  0  0  0  0  0
   -3.9758   -1.7388    1.0495 C   0  0  0  0  0  0  0  0  0  0  0  0
   -5.0024   -1.8732    0.1140 C   0  0  0  0  0  0  0  0  0  0  0  0
   -5.1676   -0.9008   -0.8699 C   0  0  0  0  0  0  0  0  0  0  0  0
   -4.3111    0.1993   -0.9130 C   0  0  0  0  0  0  0  0  0  0  0  0
   -1.0393    0.5667   -1.4523 H   0  0  0  0  0  0  0  0  0  0  0  0
    0.1645    2.6094   -1.8357 H   0  0  0  0  0  0  0  0  0  0  0  0
   -0.4668    3.3193   -0.3169 H   0  0  0  0  0  0  0  0  0  0  0  0
    2.5719    1.3020    1.9259 H   0  0  0  0  0  0  0  0  0  0  0  0
    1.6756   -0.2360    2.1608 H   0  0  0  0  0  0  0  0  0  0  0  0
    1.6669   -1.4858   -0.4400 H   0  0  0  0  0  0  0  0  0  0  0  0
    3.4300   -2.6418   -1.8196 H   0  0  0  0  0  0  0  0  0  0  0  0
    5.8341   -1.9479   -1.5086 H   0  0  0  0  0  0  0  0  0  0  0  0
    6.3484   -0.1565    0.1521 H   0  0  0  0  0  0  0  0  0  0  0  0
   -2.2483    2.0010    0.9446 H   0  0  0  0  0  0  0  0  0  0  0  0
   -2.7676    2.2848   -0.7277 H   0  0  0  0  0  0  0  0  0  0  0  0
   -2.3068   -0.5439    1.7231 H   0  0  0  0  0  0  0  0  0  0  0  0
   -3.8396   -2.4978    1.8218 H   0  0  0  0  0  0  0  0  0  0  0  0
   -5.6716   -2.7342    0.1524 H   0  0  0  0  0  0  0  0  0  0  0  0
   -5.9675   -0.9960   -1.6061 H   0  0  0  0  0  0  0  0  0  0  0  0
   -4.4493    0.9623   -1.6832 H   0  0  0  0  0  0  0  0  0  0  0  0
  1  2  1  0  0  0  0
  1  5  1  0  0  0  0
  2  3  2  0  0  0  0
  2  6  1  0  0  0  0
  3  4  1  0  0  0  0
  4  5  1  0  0  0  0
  4 13  1  0  0  0  0
  4 20  1  6  0  0  0
  5 21  1  0  0  0  0
  5 22  1  0  0  0  0
  6  7  1  0  0  0  0
  6 23  1  0  0  0  0
  6 24  1  0  0  0  0
  7  8  2  0  0  0  0
  7 12  1  0  0  0  0
  8  9  1  0  0  0  0
  8 25  1  0  0  0  0
  9 10  2  0  0  0  0
  9 26  1  0  0  0  0
 10 11  1  0  0  0  0
 10 27  1  0  0  0  0
 11 12  2  0  0  0  0
 11 28  1  0  0  0  0
 13 14  1  0  0  0  0
 13 29  1  0  0  0  0
 13 30  1  0  0  0  0
 14 15  2  0  0  0  0
 14 19  1  0  0  0  0
 15 16  1  0  0  0  0
 15 31  1  0  0  0  0
 16 17  2  0  0  0  0
 16 32  1  0  0  0  0
 17 18  1  0  0  0  0
 17 33  1  0  0  0  0
 18 19  2  0  0  0  0
 18 34  1  0  0  0  0
 19 35  1  0  0  0  0
M  END
$$$$
