Title Card Required
 OpenBabel03192317533D

 72 77  0  0  0  0  0  0  0  0999 V2000
    1.3786    0.7888    0.0858 P   0  0  0  0  0  0  0  0  0  0  0  0
   -1.1978   -0.1927   -0.3710 C   0  0  0  0  0  0  0  0  0  0  0  0
   -0.2472    0.7178   -0.8149 C   0  0  0  0  0  0  0  0  0  0  0  0
   -0.5450    1.5193   -1.9559 C   0  0  0  0  0  0  0  0  0  0  0  0
   -1.7589    1.4496   -2.5873 C   0  0  0  0  0  0  0  0  0  0  0  0
   -2.7674    0.5638   -2.1197 C   0  0  0  0  0  0  0  0  0  0  0  0
   -4.0406    0.4814   -2.7445 C   0  0  0  0  0  0  0  0  0  0  0  0
   -4.9922   -0.3962   -2.2853 C   0  0  0  0  0  0  0  0  0  0  0  0
   -4.7086   -1.2354   -1.1805 C   0  0  0  0  0  0  0  0  0  0  0  0
   -3.4848   -1.1784   -0.5580 C   0  0  0  0  0  0  0  0  0  0  0  0
   -2.4816   -0.2742   -1.0050 C   0  0  0  0  0  0  0  0  0  0  0  0
   -0.8678   -1.1623    0.7176 C   0  0  0  0  0  0  0  0  0  0  0  0
   -1.1761   -0.8750    2.0356 C   0  0  0  0  0  0  0  0  0  0  0  0
   -0.7765   -1.7498    3.0801 C   0  0  0  0  0  0  0  0  0  0  0  0
   -0.0881   -2.9008    2.7849 C   0  0  0  0  0  0  0  0  0  0  0  0
    0.2090   -3.2559    1.4454 C   0  0  0  0  0  0  0  0  0  0  0  0
    0.9003   -4.4555    1.1215 C   0  0  0  0  0  0  0  0  0  0  0  0
    1.1551   -4.7907   -0.1849 C   0  0  0  0  0  0  0  0  0  0  0  0
    0.7186   -3.9380   -1.2298 C   0  0  0  0  0  0  0  0  0  0  0  0
    0.0606   -2.7656   -0.9493 C   0  0  0  0  0  0  0  0  0  0  0  0
   -0.2047   -2.3817    0.3976 C   0  0  0  0  0  0  0  0  0  0  0  0
   -1.8514    0.2767    2.2605 O   0  0  0  0  0  0  0  0  0  0  0  0
   -2.2608    0.5862    3.5659 C   0  0  0  0  0  0  0  0  0  0  0  0
    2.5615    0.9321   -1.3706 C   0  0  0  0  0  0  0  0  0  0  0  0
    2.6302   -0.4241   -2.0955 C   0  0  0  0  0  0  0  0  0  0  0  0
    3.3319   -1.4999   -1.2620 C   0  0  0  0  0  0  0  0  0  0  0  0
    4.7261   -1.0462   -0.8281 C   0  0  0  0  0  0  0  0  0  0  0  0
    4.6687    0.2885   -0.0833 C   0  0  0  0  0  0  0  0  0  0  0  0
    3.9744    1.3535   -0.9342 C   0  0  0  0  0  0  0  0  0  0  0  0
    1.5197    2.4982    0.8614 C   0  0  0  0  0  0  0  0  0  0  0  0
    0.6346    2.6229    2.1167 C   0  0  0  0  0  0  0  0  0  0  0  0
   -0.7589    3.1829    1.8324 C   0  0  0  0  0  0  0  0  0  0  0  0
   -0.6630    4.5303    1.1222 C   0  0  0  0  0  0  0  0  0  0  0  0
    0.0742    4.3669   -0.2037 C   0  0  0  0  0  0  0  0  0  0  0  0
    1.4712    3.7727   -0.0007 C   0  0  0  0  0  0  0  0  0  0  0  0
    0.2096    2.2107   -2.3359 H   0  0  0  0  0  0  0  0  0  0  0  0
   -1.9689    2.0753   -3.4576 H   0  0  0  0  0  0  0  0  0  0  0  0
   -4.2478    1.1301   -3.5983 H   0  0  0  0  0  0  0  0  0  0  0  0
   -5.9674   -0.4521   -2.7715 H   0  0  0  0  0  0  0  0  0  0  0  0
   -5.4680   -1.9324   -0.8228 H   0  0  0  0  0  0  0  0  0  0  0  0
   -3.2668   -1.8281    0.2908 H   0  0  0  0  0  0  0  0  0  0  0  0
   -0.9997   -1.5071    4.1180 H   0  0  0  0  0  0  0  0  0  0  0  0
    0.2311   -3.5648    3.5908 H   0  0  0  0  0  0  0  0  0  0  0  0
    1.2201   -5.1091    1.9360 H   0  0  0  0  0  0  0  0  0  0  0  0
    1.6849   -5.7140   -0.4228 H   0  0  0  0  0  0  0  0  0  0  0  0
    0.9088   -4.2157   -2.2680 H   0  0  0  0  0  0  0  0  0  0  0  0
   -0.2778   -2.1187   -1.7603 H   0  0  0  0  0  0  0  0  0  0  0  0
   -2.8912   -0.2119    3.9917 H   0  0  0  0  0  0  0  0  0  0  0  0
   -1.3991    0.7611    4.2324 H   0  0  0  0  0  0  0  0  0  0  0  0
   -2.8499    1.5074    3.4970 H   0  0  0  0  0  0  0  0  0  0  0  0
    2.1819    1.6881   -2.0760 H   0  0  0  0  0  0  0  0  0  0  0  0
    1.6183   -0.7571   -2.3783 H   0  0  0  0  0  0  0  0  0  0  0  0
    3.1870   -0.2798   -3.0388 H   0  0  0  0  0  0  0  0  0  0  0  0
    2.7263   -1.7267   -0.3685 H   0  0  0  0  0  0  0  0  0  0  0  0
    3.3927   -2.4357   -1.8391 H   0  0  0  0  0  0  0  0  0  0  0  0
    5.1995   -1.8160   -0.2001 H   0  0  0  0  0  0  0  0  0  0  0  0
    5.3655   -0.9286   -1.7215 H   0  0  0  0  0  0  0  0  0  0  0  0
    4.1211    0.1521    0.8652 H   0  0  0  0  0  0  0  0  0  0  0  0
    5.6834    0.6240    0.1807 H   0  0  0  0  0  0  0  0  0  0  0  0
    4.5710    1.5121   -1.8506 H   0  0  0  0  0  0  0  0  0  0  0  0
    3.9556    2.3231   -0.4127 H   0  0  0  0  0  0  0  0  0  0  0  0
    2.5554    2.4029    1.2314 H   0  0  0  0  0  0  0  0  0  0  0  0
    0.5639    1.6445    2.6203 H   0  0  0  0  0  0  0  0  0  0  0  0
    1.1377    3.3076    2.8232 H   0  0  0  0  0  0  0  0  0  0  0  0
   -1.3304    2.4734    1.2113 H   0  0  0  0  0  0  0  0  0  0  0  0
   -1.3085    3.2875    2.7815 H   0  0  0  0  0  0  0  0  0  0  0  0
   -1.6650    4.9522    0.9517 H   0  0  0  0  0  0  0  0  0  0  0  0
   -0.1192    5.2467    1.7640 H   0  0  0  0  0  0  0  0  0  0  0  0
   -0.5301    3.7178   -0.8537 H   0  0  0  0  0  0  0  0  0  0  0  0
    0.1666    5.3351   -0.7201 H   0  0  0  0  0  0  0  0  0  0  0  0
    2.0842    4.5368    0.5116 H   0  0  0  0  0  0  0  0  0  0  0  0
    1.9607    3.6012   -0.9735 H   0  0  0  0  0  0  0  0  0  0  0  0
  1  3  1  0  0  0  0
  1 24  1  0  0  0  0
  1 30  1  0  0  0  0
  2  3  2  0  0  0  0
  2 11  1  0  0  0  0
  2 12  1  0  0  0  0
  3  4  1  0  0  0  0
  4  5  2  0  0  0  0
  4 36  1  0  0  0  0
  5  6  1  0  0  0  0
  5 37  1  0  0  0  0
  6  7  2  0  0  0  0
  6 11  1  0  0  0  0
  7  8  1  0  0  0  0
  7 38  1  0  0  0  0
  8  9  2  0  0  0  0
  8 39  1  0  0  0  0
  9 10  1  0  0  0  0
  9 40  1  0  0  0  0
 10 11  2  0  0  0  0
 10 41  1  0  0  0  0
 12 13  2  0  0  0  0
 12 21  1  0  0  0  0
 13 14  1  0  0  0  0
 13 22  1  0  0  0  0
 14 15  2  0  0  0  0
 14 42  1  0  0  0  0
 15 16  1  0  0  0  0
 15 43  1  0  0  0  0
 16 17  2  0  0  0  0
 16 21  1  0  0  0  0
 17 18  1  0  0  0  0
 17 44  1  0  0  0  0
 18 19  2  0  0  0  0
 18 45  1  0  0  0  0
 19 20  1  0  0  0  0
 19 46  1  0  0  0  0
 20 21  2  0  0  0  0
 20 47  1  0  0  0  0
 22 23  1  0  0  0  0
 23 48  1  0  0  0  0
 23 49  1  0  0  0  0
 23 50  1  0  0  0  0
 24 25  1  0  0  0  0
 24 29  1  0  0  0  0
 24 51  1  0  0  0  0
 25 26  1  0  0  0  0
 25 52  1  0  0  0  0
 25 53  1  0  0  0  0
 26 27  1  0  0  0  0
 26 54  1  0  0  0  0
 26 55  1  0  0  0  0
 27 28  1  0  0  0  0
 27 56  1  0  0  0  0
 27 57  1  0  0  0  0
 28 29  1  0  0  0  0
 28 58  1  0  0  0  0
 28 59  1  0  0  0  0
 29 60  1  0  0  0  0
 29 61  1  0  0  0  0
 30 31  1  0  0  0  0
 30 35  1  0  0  0  0
 30 62  1  0  0  0  0
 31 32  1  0  0  0  0
 31 63  1  0  0  0  0
 31 64  1  0  0  0  0
 32 33  1  0  0  0  0
 32 65  1  0  0  0  0
 32 66  1  0  0  0  0
 33 34  1  0  0  0  0
 33 67  1  0  0  0  0
 33 68  1  0  0  0  0
 34 35  1  0  0  0  0
 34 69  1  0  0  0  0
 34 70  1  0  0  0  0
 35 71  1  0  0  0  0
 35 72  1  0  0  0  0
M  END
$$$$
