Title Card Required
 OpenBabel03192317463D

 68 73  0  0  0  0  0  0  0  0999 V2000
   -1.9103    1.4956    2.3759 C   0  0  0  0  0  0  0  0  0  0  0  0
   -0.6932    1.4837    1.6351 C   0  0  0  0  0  0  0  0  0  0  0  0
   -0.6216    0.7524    0.4105 C   0  0  0  0  0  0  0  0  0  0  0  0
   -1.7303    0.0580   -0.0377 C   0  0  0  0  0  0  0  0  0  0  0  0
   -2.9540    0.0497    0.7081 C   0  0  0  0  0  0  0  0  0  0  0  0
   -3.0214    0.7685    1.8798 C   0  0  0  0  0  0  0  0  0  0  0  0
    0.6216    0.7526   -0.4102 C   0  0  0  0  0  0  0  0  0  0  0  0
    0.6931    1.4841   -1.6347 C   0  0  0  0  0  0  0  0  0  0  0  0
    1.9103    1.4961   -2.3755 C   0  0  0  0  0  0  0  0  0  0  0  0
    3.0214    0.7689   -1.8796 C   0  0  0  0  0  0  0  0  0  0  0  0
    2.9540    0.0498   -0.7081 C   0  0  0  0  0  0  0  0  0  0  0  0
    1.7303    0.0579    0.0378 C   0  0  0  0  0  0  0  0  0  0  0  0
   -1.6332   -0.5929   -1.2188 O   0  0  0  0  0  0  0  0  0  0  0  0
    1.6332   -0.5933    1.2186 O   0  0  0  0  0  0  0  0  0  0  0  0
   -1.9846    2.2306    3.5902 C   0  0  0  0  0  0  0  0  0  0  0  0
   -0.9008    2.9339    4.0537 C   0  0  0  0  0  0  0  0  0  0  0  0
    0.3081    2.9308    3.3143 C   0  0  0  0  0  0  0  0  0  0  0  0
    0.4107    2.2265    2.1395 C   0  0  0  0  0  0  0  0  0  0  0  0
   -0.4107    2.2270   -2.1389 C   0  0  0  0  0  0  0  0  0  0  0  0
   -0.3082    2.9315   -3.3135 C   0  0  0  0  0  0  0  0  0  0  0  0
    0.9007    2.9348   -4.0530 C   0  0  0  0  0  0  0  0  0  0  0  0
    1.9845    2.2314   -3.5897 C   0  0  0  0  0  0  0  0  0  0  0  0
   -4.1304   -0.7149    0.2119 C   0  0  0  0  0  0  0  0  0  0  0  0
    4.1304   -0.7149   -0.2121 C   0  0  0  0  0  0  0  0  0  0  0  0
    5.3844   -0.0984   -0.1132 C   0  0  0  0  0  0  0  0  0  0  0  0
    6.5022   -0.8019    0.3391 C   0  0  0  0  0  0  0  0  0  0  0  0
    6.3474   -2.1448    0.7007 C   0  0  0  0  0  0  0  0  0  0  0  0
    5.1128   -2.7914    0.6098 C   0  0  0  0  0  0  0  0  0  0  0  0
    4.0094   -2.0632    0.1524 C   0  0  0  0  0  0  0  0  0  0  0  0
   -4.0094   -2.0632   -0.1526 C   0  0  0  0  0  0  0  0  0  0  0  0
   -5.1127   -2.7914   -0.6102 C   0  0  0  0  0  0  0  0  0  0  0  0
   -6.3473   -2.1447   -0.7013 C   0  0  0  0  0  0  0  0  0  0  0  0
   -6.5022   -0.8018   -0.3397 C   0  0  0  0  0  0  0  0  0  0  0  0
   -5.3844   -0.0984    0.1128 C   0  0  0  0  0  0  0  0  0  0  0  0
   -7.8508   -0.1382   -0.4422 C   0  0  0  0  0  0  0  0  0  0  0  0
   -4.9799   -4.2509   -0.9597 C   0  0  0  0  0  0  0  0  0  0  0  0
    7.8509   -0.1383    0.4414 C   0  0  0  0  0  0  0  0  0  0  0  0
    4.9800   -4.2509    0.9593 C   0  0  0  0  0  0  0  0  0  0  0  0
   -3.9496    0.7609    2.4565 H   0  0  0  0  0  0  0  0  0  0  0  0
    3.9495    0.7614   -2.4564 H   0  0  0  0  0  0  0  0  0  0  0  0
   -2.5030   -0.9177   -1.4856 H   0  0  0  0  0  0  0  0  0  0  0  0
    2.5030   -0.9180    1.4855 H   0  0  0  0  0  0  0  0  0  0  0  0
   -2.9241    2.2254    4.1474 H   0  0  0  0  0  0  0  0  0  0  0  0
   -0.9661    3.4964    4.9861 H   0  0  0  0  0  0  0  0  0  0  0  0
    1.1659    3.4961    3.6823 H   0  0  0  0  0  0  0  0  0  0  0  0
    1.3426    2.2321    1.5730 H   0  0  0  0  0  0  0  0  0  0  0  0
   -1.3427    2.2325   -1.5724 H   0  0  0  0  0  0  0  0  0  0  0  0
   -1.1660    3.4970   -3.6814 H   0  0  0  0  0  0  0  0  0  0  0  0
    0.9660    3.4976   -4.9852 H   0  0  0  0  0  0  0  0  0  0  0  0
    2.9239    2.2263   -4.1469 H   0  0  0  0  0  0  0  0  0  0  0  0
    5.4779    0.9573   -0.3785 H   0  0  0  0  0  0  0  0  0  0  0  0
    7.2154   -2.7017    1.0656 H   0  0  0  0  0  0  0  0  0  0  0  0
    3.0391   -2.5589    0.0583 H   0  0  0  0  0  0  0  0  0  0  0  0
   -3.0391   -2.5590   -0.0583 H   0  0  0  0  0  0  0  0  0  0  0  0
   -7.2153   -2.7016   -1.0664 H   0  0  0  0  0  0  0  0  0  0  0  0
   -5.4778    0.9573    0.3782 H   0  0  0  0  0  0  0  0  0  0  0  0
   -8.2907   -0.2895   -1.4384 H   0  0  0  0  0  0  0  0  0  0  0  0
   -8.5515   -0.5616    0.2931 H   0  0  0  0  0  0  0  0  0  0  0  0
   -7.7797    0.9415   -0.2591 H   0  0  0  0  0  0  0  0  0  0  0  0
   -5.2620   -4.8814   -0.1023 H   0  0  0  0  0  0  0  0  0  0  0  0
   -5.6357   -4.5209   -1.7985 H   0  0  0  0  0  0  0  0  0  0  0  0
   -3.9466   -4.5038   -1.2316 H   0  0  0  0  0  0  0  0  0  0  0  0
    8.2911   -0.2899    1.4374 H   0  0  0  0  0  0  0  0  0  0  0  0
    8.5514   -0.5615   -0.2942 H   0  0  0  0  0  0  0  0  0  0  0  0
    7.7798    0.9415    0.2585 H   0  0  0  0  0  0  0  0  0  0  0  0
    5.2616   -4.8814    0.1018 H   0  0  0  0  0  0  0  0  0  0  0  0
    5.6362   -4.5210    1.7978 H   0  0  0  0  0  0  0  0  0  0  0  0
    3.9468   -4.5037    1.2317 H   0  0  0  0  0  0  0  0  0  0  0  0
  1  2  1  0  0  0  0
  1  6  2  0  0  0  0
  1 15  1  0  0  0  0
  2  3  2  0  0  0  0
  2 18  1  0  0  0  0
  3  4  1  0  0  0  0
  3  7  1  0  0  0  0
  4  5  2  0  0  0  0
  4 13  1  0  0  0  0
  5  6  1  0  0  0  0
  5 23  1  0  0  0  0
  6 39  1  0  0  0  0
  7  8  2  0  0  0  0
  7 12  1  0  0  0  0
  8  9  1  0  0  0  0
  8 19  1  0  0  0  0
  9 10  2  0  0  0  0
  9 22  1  0  0  0  0
 10 11  1  0  0  0  0
 10 40  1  0  0  0  0
 11 12  2  0  0  0  0
 11 24  1  0  0  0  0
 12 14  1  0  0  0  0
 13 41  1  0  0  0  0
 14 42  1  0  0  0  0
 15 16  2  0  0  0  0
 15 43  1  0  0  0  0
 16 17  1  0  0  0  0
 16 44  1  0  0  0  0
 17 18  2  0  0  0  0
 17 45  1  0  0  0  0
 18 46  1  0  0  0  0
 19 20  2  0  0  0  0
 19 47  1  0  0  0  0
 20 21  1  0  0  0  0
 20 48  1  0  0  0  0
 21 22  2  0  0  0  0
 21 49  1  0  0  0  0
 22 50  1  0  0  0  0
 23 30  2  0  0  0  0
 23 34  1  0  0  0  0
 24 25  2  0  0  0  0
 24 29  1  0  0  0  0
 25 26  1  0  0  0  0
 25 51  1  0  0  0  0
 26 27  2  0  0  0  0
 26 37  1  0  0  0  0
 27 28  1  0  0  0  0
 27 52  1  0  0  0  0
 28 29  2  0  0  0  0
 28 38  1  0  0  0  0
 29 53  1  0  0  0  0
 30 31  1  0  0  0  0
 30 54  1  0  0  0  0
 31 32  2  0  0  0  0
 31 36  1  0  0  0  0
 32 33  1  0  0  0  0
 32 55  1  0  0  0  0
 33 34  2  0  0  0  0
 33 35  1  0  0  0  0
 34 56  1  0  0  0  0
 35 57  1  0  0  0  0
 35 58  1  0  0  0  0
 35 59  1  0  0  0  0
 36 60  1  0  0  0  0
 36 61  1  0  0  0  0
 36 62  1  0  0  0  0
 37 63  1  0  0  0  0
 37 64  1  0  0  0  0
 37 65  1  0  0  0  0
 38 66  1  0  0  0  0
 38 67  1  0  0  0  0
 38 68  1  0  0  0  0
M  END
$$$$
