Title Card Required
 OpenBabel03192317533D

104109  0  0  1  0  0  0  0  0999 V2000
   -0.6073   -2.3898   -1.0439 C   0  0  0  0  0  0  0  0  0  0  0  0
   -0.7197   -1.1258   -0.4185 C   0  0  1  0  0  3  0  0  0  0  0  0
   -1.3736   -1.0954    0.8204 C   0  0  0  0  0  0  0  0  0  0  0  0
   -1.7846   -2.3043    1.3971 C   0  0  0  0  0  0  0  0  0  0  0  0
   -1.5667   -3.4873    0.6942 C   0  0  0  0  0  0  0  0  0  0  0  0
   -1.0239   -3.5254   -0.5140 N   0  0  0  0  0  4  0  0  0  0  0  0
   -0.5793    0.5485   -2.2746 C   0  0  0  0  0  0  0  0  0  0  0  0
   -0.0663    0.0301   -1.0778 C   0  0  2  0  0  3  0  0  0  0  0  0
    1.1131    0.6120   -0.5806 C   0  0  0  0  0  0  0  0  0  0  0  0
    1.6851    1.6778   -1.2712 C   0  0  0  0  0  0  0  0  0  0  0  0
    1.0607    2.1078   -2.4471 C   0  0  0  0  0  0  0  0  0  0  0  0
   -0.0345    1.5529   -2.9456 N   0  0  0  0  0  4  0  0  0  0  0  0
    1.6224    3.1351   -3.1042 O   0  0  0  0  0  0  0  0  0  0  0  0
    1.0564    3.5115   -4.3403 C   0  0  0  0  0  0  0  0  0  0  0  0
   -1.9278   -4.6465    1.2727 O   0  0  0  0  0  0  0  0  0  0  0  0
   -1.7067   -5.8309    0.5355 C   0  0  0  0  0  0  0  0  0  0  0  0
   -1.7191    0.0065   -2.7385 O   0  0  0  0  0  0  0  0  0  0  0  0
   -2.1918    0.4471   -3.9921 C   0  0  0  0  0  0  0  0  0  0  0  0
   -0.0319   -2.4262   -2.2531 O   0  0  0  0  0  0  0  0  0  0  0  0
    0.0227   -3.6764   -2.9044 C   0  0  0  0  0  0  0  0  0  0  0  0
    1.7561   -0.0023    1.0509 P   0  0  0  0  0  0  0  0  0  0  0  0
    2.0648   -1.7706    0.6335 C   0  0  0  0  0  0  0  0  0  0  0  0
    2.6121   -2.1836   -0.5871 C   0  0  0  0  0  0  0  0  0  0  0  0
    2.7868   -3.5393   -0.8674 C   0  0  0  0  0  0  0  0  0  0  0  0
    2.3805   -4.4798    0.0890 C   0  0  0  0  0  0  0  0  0  0  0  0
    1.8228   -4.0960    1.3101 C   0  0  0  0  0  0  0  0  0  0  0  0
    1.6788   -2.7281    1.5729 C   0  0  0  0  0  0  0  0  0  0  0  0
    1.3470   -5.1091    2.3186 C   0  0  0  0  0  0  0  0  0  0  0  0
    3.4115   -3.9727   -2.1686 C   0  0  0  0  0  0  0  0  0  0  0  0
    3.4498    0.7252    1.0993 C   0  0  0  0  0  0  0  0  0  0  0  0
    3.5461    2.0813    1.4322 C   0  0  0  0  0  0  0  0  0  0  0  0
    4.7877    2.7185    1.5298 C   0  0  0  0  0  0  0  0  0  0  0  0
    5.9418    1.9608    1.3214 C   0  0  0  0  0  0  0  0  0  0  0  0
    5.8788    0.5965    1.0204 C   0  0  0  0  0  0  0  0  0  0  0  0
    4.6252   -0.0101    0.9067 C   0  0  0  0  0  0  0  0  0  0  0  0
    7.1446   -0.2017    0.8431 C   0  0  0  0  0  0  0  0  0  0  0  0
    4.8685    4.1899    1.8451 C   0  0  0  0  0  0  0  0  0  0  0  0
   -1.8617    0.3576    1.8773 P   0  0  0  0  0  0  0  0  0  0  0  0
   -1.2914    1.9320    1.0868 C   0  0  0  0  0  0  0  0  0  0  0  0
   -1.8067    2.4451   -0.1044 C   0  0  0  0  0  0  0  0  0  0  0  0
   -1.3760    3.6800   -0.6030 C   0  0  0  0  0  0  0  0  0  0  0  0
   -0.4349    4.4057    0.1308 C   0  0  0  0  0  0  0  0  0  0  0  0
    0.0750    3.9335    1.3449 C   0  0  0  0  0  0  0  0  0  0  0  0
   -0.3597    2.6893    1.8090 C   0  0  0  0  0  0  0  0  0  0  0  0
    1.0531    4.7682    2.1314 C   0  0  0  0  0  0  0  0  0  0  0  0
   -1.9344    4.2066   -1.8992 C   0  0  0  0  0  0  0  0  0  0  0  0
   -3.6525    0.4223    1.4051 C   0  0  0  0  0  0  0  0  0  0  0  0
   -4.5132    1.0671    2.3009 C   0  0  0  0  0  0  0  0  0  0  0  0
   -5.8727    1.2153    2.0171 C   0  0  0  0  0  0  0  0  0  0  0  0
   -6.3635    0.6884    0.8179 C   0  0  0  0  0  0  0  0  0  0  0  0
   -5.5304    0.0304   -0.0902 C   0  0  0  0  0  0  0  0  0  0  0  0
   -4.1701   -0.0947    0.2138 C   0  0  0  0  0  0  0  0  0  0  0  0
   -6.0879   -0.5549   -1.3624 C   0  0  0  0  0  0  0  0  0  0  0  0
   -6.7967    1.9255    2.9725 C   0  0  0  0  0  0  0  0  0  0  0  0
   -2.2748   -2.3451    2.3704 H   0  0  0  0  0  0  0  0  0  0  0  0
    2.5961    2.1778   -0.9475 H   0  0  0  0  0  0  0  0  0  0  0  0
    1.0428    2.6665   -5.0441 H   0  0  0  0  0  0  0  0  0  0  0  0
    0.0253    3.8723   -4.2150 H   0  0  0  0  0  0  0  0  0  0  0  0
    1.6888    4.3163   -4.7312 H   0  0  0  0  0  0  0  0  0  0  0  0
   -2.2773   -5.8232   -0.4045 H   0  0  0  0  0  0  0  0  0  0  0  0
   -0.6404   -5.9489    0.2902 H   0  0  0  0  0  0  0  0  0  0  0  0
   -2.0436   -6.6540    1.1753 H   0  0  0  0  0  0  0  0  0  0  0  0
   -2.4653    1.5122   -3.9651 H   0  0  0  0  0  0  0  0  0  0  0  0
   -1.4309    0.3059   -4.7731 H   0  0  0  0  0  0  0  0  0  0  0  0
   -3.0770   -0.1590   -4.2146 H   0  0  0  0  0  0  0  0  0  0  0  0
    0.5878   -4.4059   -2.3060 H   0  0  0  0  0  0  0  0  0  0  0  0
   -0.9879   -4.0766   -3.0726 H   0  0  0  0  0  0  0  0  0  0  0  0
    0.5224   -3.4990   -3.8635 H   0  0  0  0  0  0  0  0  0  0  0  0
    2.8919   -1.4368   -1.3362 H   0  0  0  0  0  0  0  0  0  0  0  0
    2.4959   -5.5455   -0.1314 H   0  0  0  0  0  0  0  0  0  0  0  0
    1.2253   -2.4032    2.5141 H   0  0  0  0  0  0  0  0  0  0  0  0
    0.2634   -5.0044    2.4860 H   0  0  0  0  0  0  0  0  0  0  0  0
    1.5483   -6.1354    1.9829 H   0  0  0  0  0  0  0  0  0  0  0  0
    1.8448   -4.9635    3.2887 H   0  0  0  0  0  0  0  0  0  0  0  0
    4.5101   -3.9190   -2.1124 H   0  0  0  0  0  0  0  0  0  0  0  0
    3.1436   -5.0085   -2.4197 H   0  0  0  0  0  0  0  0  0  0  0  0
    3.0921   -3.3198   -2.9932 H   0  0  0  0  0  0  0  0  0  0  0  0
    2.6320    2.6564    1.6100 H   0  0  0  0  0  0  0  0  0  0  0  0
    6.9195    2.4444    1.4055 H   0  0  0  0  0  0  0  0  0  0  0  0
    4.5724   -1.0743    0.6703 H   0  0  0  0  0  0  0  0  0  0  0  0
    7.8720    0.3411    0.2230 H   0  0  0  0  0  0  0  0  0  0  0  0
    7.6225   -0.3963    1.8156 H   0  0  0  0  0  0  0  0  0  0  0  0
    6.9422   -1.1710    0.3694 H   0  0  0  0  0  0  0  0  0  0  0  0
    5.8944    4.4870    2.1001 H   0  0  0  0  0  0  0  0  0  0  0  0
    4.5489    4.7940    0.9817 H   0  0  0  0  0  0  0  0  0  0  0  0
    4.2150    4.4508    2.6896 H   0  0  0  0  0  0  0  0  0  0  0  0
   -2.5507    1.8725   -0.6668 H   0  0  0  0  0  0  0  0  0  0  0  0
   -0.0956    5.3740   -0.2494 H   0  0  0  0  0  0  0  0  0  0  0  0
    0.0299    2.2959    2.7525 H   0  0  0  0  0  0  0  0  0  0  0  0
    1.9262    5.0381    1.5180 H   0  0  0  0  0  0  0  0  0  0  0  0
    0.5875    5.7070    2.4677 H   0  0  0  0  0  0  0  0  0  0  0  0
    1.4103    4.2321    3.0216 H   0  0  0  0  0  0  0  0  0  0  0  0
   -1.4413    5.1421   -2.1965 H   0  0  0  0  0  0  0  0  0  0  0  0
   -1.7890    3.4681   -2.7020 H   0  0  0  0  0  0  0  0  0  0  0  0
   -3.0140    4.4009   -1.8122 H   0  0  0  0  0  0  0  0  0  0  0  0
   -4.1141    1.4641    3.2389 H   0  0  0  0  0  0  0  0  0  0  0  0
   -7.4280    0.7930    0.5868 H   0  0  0  0  0  0  0  0  0  0  0  0
   -3.5074   -0.5902   -0.5016 H   0  0  0  0  0  0  0  0  0  0  0  0
   -6.5152   -1.5530   -1.1787 H   0  0  0  0  0  0  0  0  0  0  0  0
   -6.8875    0.0755   -1.7754 H   0  0  0  0  0  0  0  0  0  0  0  0
   -5.3032   -0.6659   -2.1229 H   0  0  0  0  0  0  0  0  0  0  0  0
   -7.1976    2.8451    2.5202 H   0  0  0  0  0  0  0  0  0  0  0  0
   -7.6543    1.2909    3.2399 H   0  0  0  0  0  0  0  0  0  0  0  0
   -6.2749    2.2031    3.8975 H   0  0  0  0  0  0  0  0  0  0  0  0
  1  6  2  0  0  0  0
  1 19  1  0  0  0  0
  2  1  1  1  0  0  0
  2  3  1  0  0  0  0
  2  8  1  0  0  0  0
  3  4  2  0  0  0  0
  3 38  1  0  0  0  0
  4  5  1  0  0  0  0
  4 55  1  0  0  0  0
  5  6  2  0  0  0  0
  5 15  1  0  0  0  0
  7 12  2  0  0  0  0
  7 17  1  0  0  0  0
  8  7  1  6  0  0  0
  8  9  1  0  0  0  0
  9 10  2  0  0  0  0
  9 21  1  0  0  0  0
 10 11  1  0  0  0  0
 10 56  1  0  0  0  0
 11 12  2  0  0  0  0
 11 13  1  0  0  0  0
 13 14  1  0  0  0  0
 14 57  1  0  0  0  0
 14 58  1  0  0  0  0
 14 59  1  0  0  0  0
 15 16  1  0  0  0  0
 16 60  1  0  0  0  0
 16 61  1  0  0  0  0
 16 62  1  0  0  0  0
 17 18  1  0  0  0  0
 18 63  1  0  0  0  0
 18 64  1  0  0  0  0
 18 65  1  0  0  0  0
 19 20  1  0  0  0  0
 20 66  1  0  0  0  0
 20 67  1  0  0  0  0
 20 68  1  0  0  0  0
 21 22  1  0  0  0  0
 21 30  1  0  0  0  0
 22 23  2  0  0  0  0
 22 27  1  0  0  0  0
 23 24  1  0  0  0  0
 23 69  1  0  0  0  0
 24 25  2  0  0  0  0
 24 29  1  0  0  0  0
 25 26  1  0  0  0  0
 25 70  1  0  0  0  0
 26 27  2  0  0  0  0
 26 28  1  0  0  0  0
 27 71  1  0  0  0  0
 28 72  1  0  0  0  0
 28 73  1  0  0  0  0
 28 74  1  0  0  0  0
 29 75  1  0  0  0  0
 29 76  1  0  0  0  0
 29 77  1  0  0  0  0
 30 31  2  0  0  0  0
 30 35  1  0  0  0  0
 31 32  1  0  0  0  0
 31 78  1  0  0  0  0
 32 33  2  0  0  0  0
 32 37  1  0  0  0  0
 33 34  1  0  0  0  0
 33 79  1  0  0  0  0
 34 35  2  0  0  0  0
 34 36  1  0  0  0  0
 35 80  1  0  0  0  0
 36 81  1  0  0  0  0
 36 82  1  0  0  0  0
 36 83  1  0  0  0  0
 37 84  1  0  0  0  0
 37 85  1  0  0  0  0
 37 86  1  0  0  0  0
 38 39  1  0  0  0  0
 38 47  1  0  0  0  0
 39 40  2  0  0  0  0
 39 44  1  0  0  0  0
 40 41  1  0  0  0  0
 40 87  1  0  0  0  0
 41 42  2  0  0  0  0
 41 46  1  0  0  0  0
 42 43  1  0  0  0  0
 42 88  1  0  0  0  0
 43 44  2  0  0  0  0
 43 45  1  0  0  0  0
 44 89  1  0  0  0  0
 45 90  1  0  0  0  0
 45 91  1  0  0  0  0
 45 92  1  0  0  0  0
 46 93  1  0  0  0  0
 46 94  1  0  0  0  0
 46 95  1  0  0  0  0
 47 48  2  0  0  0  0
 47 52  1  0  0  0  0
 48 49  1  0  0  0  0
 48 96  1  0  0  0  0
 49 50  2  0  0  0  0
 49 54  1  0  0  0  0
 50 51  1  0  0  0  0
 50 97  1  0  0  0  0
 51 52  2  0  0  0  0
 51 53  1  0  0  0  0
 52 98  1  0  0  0  0
 53 99  1  0  0  0  0
 53100  1  0  0  0  0
 53101  1  0  0  0  0
 54102  1  0  0  0  0
 54103  1  0  0  0  0
 54104  1  0  0  0  0
M  END
$$$$
