Title Card Required
 OpenBabel03192317573D

 43 47  0  0  0  0  0  0  0  0999 V2000
   -2.5075   -1.7875    0.3431 N   0  0  0  0  0  0  0  0  0  0  0  0
   -0.8475   -0.6428   -1.4538 O   0  0  0  0  0  0  0  0  0  0  0  0
   -1.0598   -2.0076   -0.4729 P   0  0  0  0  0  0  0  0  0  0  0  0
   -0.0806   -1.5206    0.8065 O   0  0  0  0  0  0  0  0  0  0  0  0
    1.2593   -1.4084    0.5258 C   0  0  0  0  0  0  0  0  0  0  0  0
    1.7871   -0.1862    0.1197 C   0  0  0  0  0  0  0  0  0  0  0  0
    1.1433    1.1834    0.0573 C   0  0  0  0  0  0  0  0  0  0  0  0
   -0.3360    1.3614   -0.2247 C   0  0  0  0  0  0  0  0  0  0  0  0
   -1.2136    0.5892   -0.9853 C   0  0  0  0  0  0  0  0  0  0  0  0
    2.0283    1.8574   -1.0285 C   0  0  0  0  0  0  0  0  0  0  0  0
    3.4329    1.2757   -0.7963 C   0  0  0  0  0  0  0  0  0  0  0  0
    3.1253   -0.1135   -0.2853 C   0  0  0  0  0  0  0  0  0  0  0  0
    3.9551   -1.2292   -0.2265 C   0  0  0  0  0  0  0  0  0  0  0  0
    3.4255   -2.4402    0.2249 C   0  0  0  0  0  0  0  0  0  0  0  0
    2.0818   -2.5366    0.5824 C   0  0  0  0  0  0  0  0  0  0  0  0
    1.2669    1.9526    1.4011 C   0  0  0  0  0  0  0  0  0  0  0  0
    0.2784    3.1219    1.2643 C   0  0  0  0  0  0  0  0  0  0  0  0
   -0.8051    2.5296    0.3915 C   0  0  0  0  0  0  0  0  0  0  0  0
   -2.1078    2.9772    0.1930 C   0  0  0  0  0  0  0  0  0  0  0  0
   -2.9561    2.2351   -0.6331 C   0  0  0  0  0  0  0  0  0  0  0  0
   -2.5186    1.0428   -1.2054 C   0  0  0  0  0  0  0  0  0  0  0  0
   -3.6484   -2.5840   -0.0575 C   0  0  0  0  0  0  0  0  0  0  0  0
   -2.7644   -0.8544    1.4266 C   0  0  0  0  0  0  0  0  0  0  0  0
    1.9867    2.9551   -0.9812 H   0  0  0  0  0  0  0  0  0  0  0  0
    1.6583    1.5433   -2.0163 H   0  0  0  0  0  0  0  0  0  0  0  0
    3.9866    1.8542   -0.0379 H   0  0  0  0  0  0  0  0  0  0  0  0
    4.0497    1.2626   -1.7059 H   0  0  0  0  0  0  0  0  0  0  0  0
    4.9966   -1.1653   -0.5467 H   0  0  0  0  0  0  0  0  0  0  0  0
    4.0578   -3.3283    0.2704 H   0  0  0  0  0  0  0  0  0  0  0  0
    1.6438   -3.4850    0.8967 H   0  0  0  0  0  0  0  0  0  0  0  0
    0.9401    1.2835    2.2124 H   0  0  0  0  0  0  0  0  0  0  0  0
    2.3003    2.2635    1.6120 H   0  0  0  0  0  0  0  0  0  0  0  0
   -0.1066    3.4785    2.2301 H   0  0  0  0  0  0  0  0  0  0  0  0
    0.7483    3.9855    0.7647 H   0  0  0  0  0  0  0  0  0  0  0  0
   -2.4636    3.8872    0.6795 H   0  0  0  0  0  0  0  0  0  0  0  0
   -3.9790    2.5725   -0.8086 H   0  0  0  0  0  0  0  0  0  0  0  0
   -3.1822    0.4237   -1.8113 H   0  0  0  0  0  0  0  0  0  0  0  0
   -4.0652   -3.1310    0.8053 H   0  0  0  0  0  0  0  0  0  0  0  0
   -4.4513   -1.9561   -0.4822 H   0  0  0  0  0  0  0  0  0  0  0  0
   -3.3496   -3.3195   -0.8181 H   0  0  0  0  0  0  0  0  0  0  0  0
   -1.8699   -0.2570    1.6365 H   0  0  0  0  0  0  0  0  0  0  0  0
   -3.5889   -0.1706    1.1652 H   0  0  0  0  0  0  0  0  0  0  0  0
   -3.0405   -1.4053    2.3423 H   0  0  0  0  0  0  0  0  0  0  0  0
  1  3  1  0  0  0  0
  1 22  1  0  0  0  0
  1 23  1  0  0  0  0
  2  3  1  0  0  0  0
  2  9  1  0  0  0  0
  3  4  1  0  0  0  0
  4  5  1  0  0  0  0
  5  6  2  0  0  0  0
  5 15  1  0  0  0  0
  6  7  1  0  0  0  0
  6 12  1  0  0  0  0
  7  8  1  0  0  0  0
  7 10  1  0  0  0  0
  7 16  1  0  0  0  0
  8  9  2  0  0  0  0
  8 18  1  0  0  0  0
  9 21  1  0  0  0  0
 10 11  1  0  0  0  0
 10 24  1  0  0  0  0
 10 25  1  0  0  0  0
 11 12  1  0  0  0  0
 11 26  1  0  0  0  0
 11 27  1  0  0  0  0
 12 13  2  0  0  0  0
 13 14  1  0  0  0  0
 13 28  1  0  0  0  0
 14 15  2  0  0  0  0
 14 29  1  0  0  0  0
 15 30  1  0  0  0  0
 16 17  1  0  0  0  0
 16 31  1  0  0  0  0
 16 32  1  0  0  0  0
 17 18  1  0  0  0  0
 17 33  1  0  0  0  0
 17 34  1  0  0  0  0
 18 19  2  0  0  0  0
 19 20  1  0  0  0  0
 19 35  1  0  0  0  0
 20 21  2  0  0  0  0
 20 36  1  0  0  0  0
 21 37  1  0  0  0  0
 22 38  1  0  0  0  0
 22 39  1  0  0  0  0
 22 40  1  0  0  0  0
 23 41  1  0  0  0  0
 23 42  1  0  0  0  0
 23 43  1  0  0  0  0
M  END
$$$$
