Title Card Required
 OpenBabel03192317523D

 52 56  0  0  0  0  0  0  0  0999 V2000
   -1.1742    1.7577    1.0190 O   0  0  0  0  0  0  0  0  0  0  0  0
   -2.1212    2.2600   -0.2814 P   0  0  0  0  0  0  0  0  0  0  0  0
   -1.4238    1.2590   -1.4502 O   0  0  0  0  0  0  0  0  0  0  0  0
   -1.2120   -0.0669   -1.1861 C   0  0  0  0  0  0  0  0  0  0  0  0
   -0.1721   -0.4398   -0.3260 C   0  0  0  0  0  0  0  0  0  0  0  0
    0.7473    0.6309    0.1567 C   0  0  0  0  0  0  0  0  0  0  0  0
    0.1874    1.7046    0.8577 C   0  0  0  0  0  0  0  0  0  0  0  0
   -2.0611   -1.0214   -1.7438 C   0  0  0  0  0  0  0  0  0  0  0  0
   -1.8999   -2.3525   -1.3891 C   0  0  0  0  0  0  0  0  0  0  0  0
   -0.9395   -2.7465   -0.4486 C   0  0  0  0  0  0  0  0  0  0  0  0
   -0.9000   -4.2010   -0.0198 C   0  0  0  0  0  0  0  0  0  0  0  0
    0.3104   -4.5506    0.8398 C   0  0  0  0  0  0  0  0  0  0  0  0
    0.5167   -3.4699    1.8949 C   0  0  0  0  0  0  0  0  0  0  0  0
    0.8850   -2.1554    1.2145 C   0  0  0  0  0  0  0  0  0  0  0  0
   -0.0754   -1.7825    0.1006 C   0  0  0  0  0  0  0  0  0  0  0  0
    0.9858    2.7184    1.3819 C   0  0  0  0  0  0  0  0  0  0  0  0
    2.3556    2.6696    1.1671 C   0  0  0  0  0  0  0  0  0  0  0  0
    2.9391    1.6578    0.3947 C   0  0  0  0  0  0  0  0  0  0  0  0
    4.4249    1.7401    0.1011 C   0  0  0  0  0  0  0  0  0  0  0  0
    4.9839    0.4943   -0.5776 C   0  0  0  0  0  0  0  0  0  0  0  0
    4.0394    0.0488   -1.6875 C   0  0  0  0  0  0  0  0  0  0  0  0
    2.7107   -0.3933   -1.0824 C   0  0  0  0  0  0  0  0  0  0  0  0
    2.1292    0.6367   -0.1313 C   0  0  0  0  0  0  0  0  0  0  0  0
   -3.5220    1.4971    0.2345 N   0  0  0  0  0  0  0  0  0  0  0  0
   -3.6097    0.2533    0.9794 C   0  0  0  0  0  0  0  0  0  0  0  0
   -4.7970    2.0870   -0.1172 C   0  0  0  0  0  0  0  0  0  0  0  0
   -2.8413   -0.6934   -2.4315 H   0  0  0  0  0  0  0  0  0  0  0  0
   -2.5592   -3.1103   -1.8201 H   0  0  0  0  0  0  0  0  0  0  0  0
   -0.9404   -4.8412   -0.9149 H   0  0  0  0  0  0  0  0  0  0  0  0
   -1.8197   -4.4192    0.5506 H   0  0  0  0  0  0  0  0  0  0  0  0
    1.2138   -4.6127    0.2095 H   0  0  0  0  0  0  0  0  0  0  0  0
    0.1721   -5.5401    1.2992 H   0  0  0  0  0  0  0  0  0  0  0  0
   -0.4123   -3.3462    2.4773 H   0  0  0  0  0  0  0  0  0  0  0  0
    1.3061   -3.7534    2.6057 H   0  0  0  0  0  0  0  0  0  0  0  0
    0.9224   -1.3303    1.9413 H   0  0  0  0  0  0  0  0  0  0  0  0
    1.9080   -2.2505    0.8181 H   0  0  0  0  0  0  0  0  0  0  0  0
    0.5139    3.5275    1.9398 H   0  0  0  0  0  0  0  0  0  0  0  0
    2.9944    3.4568    1.5752 H   0  0  0  0  0  0  0  0  0  0  0  0
    4.9661    1.9516    1.0365 H   0  0  0  0  0  0  0  0  0  0  0  0
    4.5977    2.6124   -0.5530 H   0  0  0  0  0  0  0  0  0  0  0  0
    5.0848   -0.3219    0.1581 H   0  0  0  0  0  0  0  0  0  0  0  0
    5.9918    0.6991   -0.9667 H   0  0  0  0  0  0  0  0  0  0  0  0
    3.8744    0.8869   -2.3856 H   0  0  0  0  0  0  0  0  0  0  0  0
    4.4734   -0.7754   -2.2719 H   0  0  0  0  0  0  0  0  0  0  0  0
    1.9705   -0.6078   -1.8675 H   0  0  0  0  0  0  0  0  0  0  0  0
    2.8765   -1.3471   -0.5570 H   0  0  0  0  0  0  0  0  0  0  0  0
   -4.1641    0.4169    1.9196 H   0  0  0  0  0  0  0  0  0  0  0  0
   -4.1343   -0.5220    0.3957 H   0  0  0  0  0  0  0  0  0  0  0  0
   -2.6072   -0.1133    1.2285 H   0  0  0  0  0  0  0  0  0  0  0  0
   -4.6417    3.0500   -0.6238 H   0  0  0  0  0  0  0  0  0  0  0  0
   -5.3752    1.4327   -0.7925 H   0  0  0  0  0  0  0  0  0  0  0  0
   -5.4055    2.2666    0.7856 H   0  0  0  0  0  0  0  0  0  0  0  0
  1  2  1  0  0  0  0
  1  7  1  0  0  0  0
  2  3  1  0  0  0  0
  2 24  1  0  0  0  0
  3  4  1  0  0  0  0
  4  5  2  0  0  0  0
  4  8  1  0  0  0  0
  5  6  1  0  0  0  0
  5 15  1  0  0  0  0
  6  7  2  0  0  0  0
  6 23  1  0  0  0  0
  7 16  1  0  0  0  0
  8  9  2  0  0  0  0
  8 27  1  0  0  0  0
  9 10  1  0  0  0  0
  9 28  1  0  0  0  0
 10 11  1  0  0  0  0
 10 15  2  0  0  0  0
 11 12  1  0  0  0  0
 11 29  1  0  0  0  0
 11 30  1  0  0  0  0
 12 13  1  0  0  0  0
 12 31  1  0  0  0  0
 12 32  1  0  0  0  0
 13 14  1  0  0  0  0
 13 33  1  0  0  0  0
 13 34  1  0  0  0  0
 14 15  1  0  0  0  0
 14 35  1  0  0  0  0
 14 36  1  0  0  0  0
 16 17  2  0  0  0  0
 16 37  1  0  0  0  0
 17 18  1  0  0  0  0
 17 38  1  0  0  0  0
 18 19  1  0  0  0  0
 18 23  2  0  0  0  0
 19 20  1  0  0  0  0
 19 39  1  0  0  0  0
 19 40  1  0  0  0  0
 20 21  1  0  0  0  0
 20 41  1  0  0  0  0
 20 42  1  0  0  0  0
 21 22  1  0  0  0  0
 21 43  1  0  0  0  0
 21 44  1  0  0  0  0
 22 23  1  0  0  0  0
 22 45  1  0  0  0  0
 22 46  1  0  0  0  0
 24 25  1  0  0  0  0
 24 26  1  0  0  0  0
 25 47  1  0  0  0  0
 25 48  1  0  0  0  0
 25 49  1  0  0  0  0
 26 50  1  0  0  0  0
 26 51  1  0  0  0  0
 26 52  1  0  0  0  0
M  END
$$$$
