Title Card Required
 OpenBabel03192317543D

 42 44  0  0  1  0  0  0  0  0999 V2000
   -2.1959   -1.4812   -0.5006 C   0  0  2  0  0  0  0  0  0  0  0  0
   -1.4178   -0.2523    0.0314 C   0  0  2  0  0  0  0  0  0  0  0  0
   -2.3097    0.9975    0.0083 C   0  0  0  0  0  0  0  0  0  0  0  0
   -3.5996    0.7801    0.7994 C   0  0  0  0  0  0  0  0  0  0  0  0
   -4.3673   -0.4367    0.2908 C   0  0  0  0  0  0  0  0  0  0  0  0
   -3.4840   -1.6802    0.3003 C   0  0  0  0  0  0  0  0  0  0  0  0
   -1.4637   -2.7353   -0.5431 N   0  0  0  0  0  0  0  0  0  0  0  0
    0.1130    0.0216   -1.0225 P   0  0  0  0  0  0  0  0  0  0  0  0
    1.3759   -1.1276   -0.3058 C   0  0  0  0  0  0  0  0  0  0  0  0
    1.3346   -1.7004    0.9726 C   0  0  0  0  0  0  0  0  0  0  0  0
    2.3527   -2.5467    1.4104 C   0  0  0  0  0  0  0  0  0  0  0  0
    3.4348   -2.8326    0.5786 C   0  0  0  0  0  0  0  0  0  0  0  0
    3.4904   -2.2700   -0.6951 C   0  0  0  0  0  0  0  0  0  0  0  0
    2.4661   -1.4315   -1.1330 C   0  0  0  0  0  0  0  0  0  0  0  0
    0.7215    1.6365   -0.3562 C   0  0  0  0  0  0  0  0  0  0  0  0
    1.3545    1.7791    0.8851 C   0  0  0  0  0  0  0  0  0  0  0  0
    1.7450    3.0372    1.3401 C   0  0  0  0  0  0  0  0  0  0  0  0
    1.5099    4.1700    0.5602 C   0  0  0  0  0  0  0  0  0  0  0  0
    0.8878    4.0391   -0.6800 C   0  0  0  0  0  0  0  0  0  0  0  0
    0.5028    2.7784   -1.1365 C   0  0  0  0  0  0  0  0  0  0  0  0
   -2.4849   -1.2427   -1.5413 H   0  0  0  0  0  0  0  0  0  0  0  0
   -1.1322   -0.4419    1.0824 H   0  0  0  0  0  0  0  0  0  0  0  0
   -1.7638    1.8627    0.4114 H   0  0  0  0  0  0  0  0  0  0  0  0
   -2.5599    1.2425   -1.0407 H   0  0  0  0  0  0  0  0  0  0  0  0
   -3.3455    0.6294    1.8630 H   0  0  0  0  0  0  0  0  0  0  0  0
   -4.2260    1.6836    0.7503 H   0  0  0  0  0  0  0  0  0  0  0  0
   -5.2724   -0.6047    0.8937 H   0  0  0  0  0  0  0  0  0  0  0  0
   -4.7068   -0.2453   -0.7418 H   0  0  0  0  0  0  0  0  0  0  0  0
   -4.0107   -2.5528   -0.1118 H   0  0  0  0  0  0  0  0  0  0  0  0
   -3.2122   -1.9337    1.3421 H   0  0  0  0  0  0  0  0  0  0  0  0
   -0.6586   -2.6784   -1.1639 H   0  0  0  0  0  0  0  0  0  0  0  0
   -1.0987   -2.9674    0.3798 H   0  0  0  0  0  0  0  0  0  0  0  0
    0.5031   -1.4870    1.6466 H   0  0  0  0  0  0  0  0  0  0  0  0
    2.3001   -2.9833    2.4092 H   0  0  0  0  0  0  0  0  0  0  0  0
    4.2302   -3.4958    0.9217 H   0  0  0  0  0  0  0  0  0  0  0  0
    4.3301   -2.4913   -1.3560 H   0  0  0  0  0  0  0  0  0  0  0  0
    2.5083   -1.0045   -2.1383 H   0  0  0  0  0  0  0  0  0  0  0  0
    1.5528    0.8983    1.4996 H   0  0  0  0  0  0  0  0  0  0  0  0
    2.2384    3.1342    2.3088 H   0  0  0  0  0  0  0  0  0  0  0  0
    1.8181    5.1539    0.9175 H   0  0  0  0  0  0  0  0  0  0  0  0
    0.7066    4.9197   -1.2986 H   0  0  0  0  0  0  0  0  0  0  0  0
    0.0242    2.6749   -2.1137 H   0  0  0  0  0  0  0  0  0  0  0  0
  1  2  1  0  0  0  0
  1  6  1  0  0  0  0
  1  7  1  0  0  0  0
  1 21  1  6  0  0  0
  2  3  1  0  0  0  0
  2  8  1  0  0  0  0
  2 22  1  1  0  0  0
  3  4  1  0  0  0  0
  3 23  1  0  0  0  0
  3 24  1  0  0  0  0
  4  5  1  0  0  0  0
  4 25  1  0  0  0  0
  4 26  1  0  0  0  0
  5  6  1  0  0  0  0
  5 27  1  0  0  0  0
  5 28  1  0  0  0  0
  6 29  1  0  0  0  0
  6 30  1  0  0  0  0
  7 31  1  0  0  0  0
  7 32  1  0  0  0  0
  8  9  1  0  0  0  0
  8 15  1  0  0  0  0
  9 10  2  0  0  0  0
  9 14  1  0  0  0  0
 10 11  1  0  0  0  0
 10 33  1  0  0  0  0
 11 12  2  0  0  0  0
 11 34  1  0  0  0  0
 12 13  1  0  0  0  0
 12 35  1  0  0  0  0
 13 14  2  0  0  0  0
 13 36  1  0  0  0  0
 14 37  1  0  0  0  0
 15 16  2  0  0  0  0
 15 20  1  0  0  0  0
 16 17  1  0  0  0  0
 16 38  1  0  0  0  0
 17 18  2  0  0  0  0
 17 39  1  0  0  0  0
 18 19  1  0  0  0  0
 18 40  1  0  0  0  0
 19 20  2  0  0  0  0
 19 41  1  0  0  0  0
 20 42  1  0  0  0  0
M  END
$$$$
