Title Card Required
 OpenBabel03192317483D

 62 64  0  0  1  0  0  0  0  0999 V2000
    1.0612    2.8913    0.2672 C   0  0  1  0  0  0  0  0  0  0  0  0
    0.0955    2.3223   -0.8027 C   0  0  0  0  0  0  0  0  0  0  0  0
   -0.6297    1.3137   -0.1040 O   0  0  0  0  0  0  0  0  0  0  0  0
    0.0062    1.1479    1.0826 C   0  0  0  0  0  0  0  0  0  0  0  0
    0.9157    1.9684    1.3929 N   0  0  0  0  0  0  0  0  0  0  0  0
    2.5121    2.9754   -0.2144 C   0  0  0  0  0  0  0  0  0  0  0  0
    2.6297    3.9342   -1.3972 C   0  0  0  0  0  0  0  0  0  0  0  0
    3.4440    3.3821    0.9219 C   0  0  0  0  0  0  0  0  0  0  0  0
   -0.4767   -0.0044    1.9008 C   0  0  0  0  0  0  0  0  0  0  0  0
   -0.7424   -1.2966    1.1028 C   0  0  1  0  0  0  0  0  0  0  0  0
   -1.9309   -1.0887    0.1828 C   0  0  0  0  0  0  0  0  0  0  0  0
    0.4628   -1.6895    0.2838 C   0  0  0  0  0  0  0  0  0  0  0  0
   -1.0914   -2.4236    2.0892 C   0  0  0  0  0  0  0  0  0  0  0  0
    0.4796   -2.9718   -0.1399 O   0  0  0  0  0  0  0  0  0  0  0  0
    1.6461   -3.1131   -0.9528 C   0  0  0  0  0  0  0  0  0  0  0  0
    2.3965   -1.7696   -0.7622 C   0  0  1  0  0  0  0  0  0  0  0  0
    1.4402   -0.9474   -0.0225 N   0  0  0  0  0  0  0  0  0  0  0  0
   -3.0983   -0.8040    0.5770 N   0  0  0  0  0  0  0  0  0  0  0  0
   -3.9359   -0.6902   -0.6193 C   0  0  2  0  0  0  0  0  0  0  0  0
   -2.9369   -0.8861   -1.7870 C   0  0  0  0  0  0  0  0  0  0  0  0
   -1.7132   -1.2388   -1.1392 O   0  0  0  0  0  0  0  0  0  0  0  0
    3.7221   -1.8919    0.0030 C   0  0  0  0  0  0  0  0  0  0  0  0
   -4.7255    0.6267   -0.6486 C   0  0  0  0  0  0  0  0  0  0  0  0
    4.7477   -2.6733   -0.8150 C   0  0  0  0  0  0  0  0  0  0  0  0
    4.2573   -0.5153    0.3880 C   0  0  0  0  0  0  0  0  0  0  0  0
   -5.7967    0.6119    0.4394 C   0  0  0  0  0  0  0  0  0  0  0  0
   -3.8197    1.8462   -0.5007 C   0  0  0  0  0  0  0  0  0  0  0  0
    0.7494    3.9017    0.5927 H   0  0  0  0  0  0  0  0  0  0  0  0
   -0.6142    3.0550   -1.2094 H   0  0  0  0  0  0  0  0  0  0  0  0
    0.6415    1.8405   -1.6306 H   0  0  0  0  0  0  0  0  0  0  0  0
    2.7827    1.9562   -0.5433 H   0  0  0  0  0  0  0  0  0  0  0  0
    2.3352    4.9526   -1.0958 H   0  0  0  0  0  0  0  0  0  0  0  0
    3.6654    3.9811   -1.7633 H   0  0  0  0  0  0  0  0  0  0  0  0
    1.9915    3.6345   -2.2425 H   0  0  0  0  0  0  0  0  0  0  0  0
    3.3380    2.6969    1.7723 H   0  0  0  0  0  0  0  0  0  0  0  0
    4.4924    3.3812    0.5883 H   0  0  0  0  0  0  0  0  0  0  0  0
    3.2021    4.3988    1.2724 H   0  0  0  0  0  0  0  0  0  0  0  0
    0.2720   -0.1879    2.6812 H   0  0  0  0  0  0  0  0  0  0  0  0
   -1.4274    0.2720    2.3826 H   0  0  0  0  0  0  0  0  0  0  0  0
   -0.2493   -2.6026    2.7728 H   0  0  0  0  0  0  0  0  0  0  0  0
   -1.9758   -2.1292    2.6680 H   0  0  0  0  0  0  0  0  0  0  0  0
   -1.3101   -3.3531    1.5498 H   0  0  0  0  0  0  0  0  0  0  0  0
    1.3288   -3.2879   -1.9904 H   0  0  0  0  0  0  0  0  0  0  0  0
    2.2152   -3.9836   -0.5971 H   0  0  0  0  0  0  0  0  0  0  0  0
    2.6055   -1.2881   -1.7330 H   0  0  0  0  0  0  0  0  0  0  0  0
   -4.6693   -1.5148   -0.6020 H   0  0  0  0  0  0  0  0  0  0  0  0
   -3.2188   -1.6958   -2.4720 H   0  0  0  0  0  0  0  0  0  0  0  0
   -2.7719    0.0348   -2.3668 H   0  0  0  0  0  0  0  0  0  0  0  0
    3.4992   -2.4536    0.9290 H   0  0  0  0  0  0  0  0  0  0  0  0
   -5.2259    0.6714   -1.6332 H   0  0  0  0  0  0  0  0  0  0  0  0
    4.9888   -2.1306   -1.7431 H   0  0  0  0  0  0  0  0  0  0  0  0
    5.6825   -2.8012   -0.2510 H   0  0  0  0  0  0  0  0  0  0  0  0
    4.3874   -3.6748   -1.0939 H   0  0  0  0  0  0  0  0  0  0  0  0
    3.5185    0.0456    0.9765 H   0  0  0  0  0  0  0  0  0  0  0  0
    5.1868   -0.6061    0.9687 H   0  0  0  0  0  0  0  0  0  0  0  0
    4.4847    0.0705   -0.5183 H   0  0  0  0  0  0  0  0  0  0  0  0
   -5.3220    0.4962    1.4247 H   0  0  0  0  0  0  0  0  0  0  0  0
   -6.3752    1.5468    0.4382 H   0  0  0  0  0  0  0  0  0  0  0  0
   -6.4983   -0.2241    0.3010 H   0  0  0  0  0  0  0  0  0  0  0  0
   -3.0517    1.8971   -1.2859 H   0  0  0  0  0  0  0  0  0  0  0  0
   -4.4130    2.7711   -0.5460 H   0  0  0  0  0  0  0  0  0  0  0  0
   -3.2933    1.8121    0.4642 H   0  0  0  0  0  0  0  0  0  0  0  0
  1  2  1  0  0  0  0
  1  5  1  0  0  0  0
  1  6  1  0  0  0  0
  1 28  1  1  0  0  0
  2  3  1  0  0  0  0
  2 29  1  0  0  0  0
  2 30  1  0  0  0  0
  3  4  1  0  0  0  0
  4  5  2  0  0  0  0
  4  9  1  0  0  0  0
  6  7  1  0  0  0  0
  6  8  1  0  0  0  0
  6 31  1  0  0  0  0
  7 32  1  0  0  0  0
  7 33  1  0  0  0  0
  7 34  1  0  0  0  0
  8 35  1  0  0  0  0
  8 36  1  0  0  0  0
  8 37  1  0  0  0  0
  9 38  1  0  0  0  0
  9 39  1  0  0  0  0
 10  9  1  1  0  0  0
 10 11  1  0  0  0  0
 10 12  1  0  0  0  0
 10 13  1  0  0  0  0
 11 18  2  0  0  0  0
 11 21  1  0  0  0  0
 12 14  1  0  0  0  0
 12 17  2  0  0  0  0
 13 40  1  0  0  0  0
 13 41  1  0  0  0  0
 13 42  1  0  0  0  0
 14 15  1  0  0  0  0
 15 16  1  0  0  0  0
 15 43  1  0  0  0  0
 15 44  1  0  0  0  0
 16 17  1  0  0  0  0
 16 22  1  0  0  0  0
 16 45  1  6  0  0  0
 18 19  1  0  0  0  0
 19 20  1  0  0  0  0
 19 23  1  0  0  0  0
 19 46  1  6  0  0  0
 20 21  1  0  0  0  0
 20 47  1  0  0  0  0
 20 48  1  0  0  0  0
 22 24  1  0  0  0  0
 22 25  1  0  0  0  0
 22 49  1  0  0  0  0
 23 26  1  0  0  0  0
 23 27  1  0  0  0  0
 23 50  1  0  0  0  0
 24 51  1  0  0  0  0
 24 52  1  0  0  0  0
 24 53  1  0  0  0  0
 25 54  1  0  0  0  0
 25 55  1  0  0  0  0
 25 56  1  0  0  0  0
 26 57  1  0  0  0  0
 26 58  1  0  0  0  0
 26 59  1  0  0  0  0
 27 60  1  0  0  0  0
 27 61  1  0  0  0  0
 27 62  1  0  0  0  0
M  END
$$$$
