Title Card Required
 OpenBabel03192317563D

 60 65  0  0  1  0  0  0  0  0999 V2000
    1.9312   -4.2985    1.4926 C   0  0  0  0  0  0  0  0  0  0  0  0
    0.7159   -3.6935    1.2142 C   0  0  0  0  0  0  0  0  0  0  0  0
    0.6394   -2.4831    0.5092 C   0  0  0  0  0  0  0  0  0  0  0  0
    1.8282   -1.8436    0.0523 C   0  0  0  0  0  0  0  0  0  0  0  0
    3.0561   -2.4571    0.3860 C   0  0  0  0  0  0  0  0  0  0  0  0
    3.1012   -3.6564    1.0805 C   0  0  0  0  0  0  0  0  0  0  0  0
    1.7624   -0.6460   -0.6260 N   0  0  0  0  0  0  0  0  0  0  0  0
    2.8487    0.0920   -1.1035 C   0  0  0  0  0  0  0  0  0  0  0  0
    2.9545    1.4785   -0.8451 C   0  0  0  0  0  0  0  0  0  0  0  0
    4.0704    2.1968   -1.2873 C   0  0  0  0  0  0  0  0  0  0  0  0
    5.0761    1.5751   -2.0162 C   0  0  0  0  0  0  0  0  0  0  0  0
    4.9598    0.2149   -2.3086 C   0  0  0  0  0  0  0  0  0  0  0  0
    3.8640   -0.5136   -1.8620 C   0  0  0  0  0  0  0  0  0  0  0  0
   -0.6866   -1.8869    0.3113 C   0  0  0  0  0  0  0  0  0  0  0  0
    1.9011    2.1819   -0.0961 C   0  0  0  0  0  0  0  0  0  0  0  0
   -1.7001   -2.4449    1.0211 O   0  0  0  0  0  0  0  0  0  0  0  0
   -2.8956   -1.7913    0.5962 C   0  0  0  0  0  0  0  0  0  0  0  0
   -2.3745   -0.5519   -0.1736 C   0  0  1  0  0  0  0  0  0  0  0  0
   -0.9739   -0.8768   -0.4104 N   0  0  0  0  0  0  0  0  0  0  0  0
    0.6610    1.9164   -0.1488 N   0  0  0  0  0  0  0  0  0  0  0  0
   -0.0233    2.8029    0.7843 C   0  0  2  0  0  0  0  0  0  0  0  0
    1.1321    3.6477    1.4001 C   0  0  0  0  0  0  0  0  0  0  0  0
    2.2999    3.1907    0.7137 O   0  0  0  0  0  0  0  0  0  0  0  0
   -0.8334    2.0047    1.7857 C   0  0  0  0  0  0  0  0  0  0  0  0
   -0.3529    0.7795    2.2627 C   0  0  0  0  0  0  0  0  0  0  0  0
   -1.1192    0.0101    3.1356 C   0  0  0  0  0  0  0  0  0  0  0  0
   -2.3720    0.4652    3.5534 C   0  0  0  0  0  0  0  0  0  0  0  0
   -2.8498    1.6933    3.0978 C   0  0  0  0  0  0  0  0  0  0  0  0
   -2.0835    2.4563    2.2150 C   0  0  0  0  0  0  0  0  0  0  0  0
   -3.1632   -0.2515   -1.4252 C   0  0  0  0  0  0  0  0  0  0  0  0
   -4.3845    0.4231   -1.3244 C   0  0  0  0  0  0  0  0  0  0  0  0
   -5.1598    0.6583   -2.4578 C   0  0  0  0  0  0  0  0  0  0  0  0
   -4.7157    0.2280   -3.7082 C   0  0  0  0  0  0  0  0  0  0  0  0
   -3.4942   -0.4356   -3.8157 C   0  0  0  0  0  0  0  0  0  0  0  0
   -2.7214   -0.6757   -2.6802 C   0  0  0  0  0  0  0  0  0  0  0  0
    1.9708   -5.2427    2.0351 H   0  0  0  0  0  0  0  0  0  0  0  0
   -0.2188   -4.1463    1.5442 H   0  0  0  0  0  0  0  0  0  0  0  0
    3.9893   -1.9693    0.1133 H   0  0  0  0  0  0  0  0  0  0  0  0
    4.0749   -4.0917    1.3135 H   0  0  0  0  0  0  0  0  0  0  0  0
    0.8428   -0.1872   -0.6470 H   0  0  0  0  0  0  0  0  0  0  0  0
    4.1304    3.2586   -1.0448 H   0  0  0  0  0  0  0  0  0  0  0  0
    5.9392    2.1453   -2.3602 H   0  0  0  0  0  0  0  0  0  0  0  0
    5.7284   -0.2855   -2.8999 H   0  0  0  0  0  0  0  0  0  0  0  0
    3.7704   -1.5714   -2.1087 H   0  0  0  0  0  0  0  0  0  0  0  0
   -3.4972   -1.5403    1.4787 H   0  0  0  0  0  0  0  0  0  0  0  0
   -3.4605   -2.4717   -0.0611 H   0  0  0  0  0  0  0  0  0  0  0  0
   -2.4080    0.3385    0.4789 H   0  0  0  0  0  0  0  0  0  0  0  0
   -0.7194    3.4439    0.2208 H   0  0  0  0  0  0  0  0  0  0  0  0
    1.0180    4.7260    1.2293 H   0  0  0  0  0  0  0  0  0  0  0  0
    1.2606    3.4606    2.4759 H   0  0  0  0  0  0  0  0  0  0  0  0
    0.6099    0.4033    1.9070 H   0  0  0  0  0  0  0  0  0  0  0  0
   -0.7448   -0.9577    3.4739 H   0  0  0  0  0  0  0  0  0  0  0  0
   -2.9750   -0.1395    4.2330 H   0  0  0  0  0  0  0  0  0  0  0  0
   -3.8272    2.0549    3.4218 H   0  0  0  0  0  0  0  0  0  0  0  0
   -2.4723    3.4054    1.8374 H   0  0  0  0  0  0  0  0  0  0  0  0
   -4.7251    0.7737   -0.3461 H   0  0  0  0  0  0  0  0  0  0  0  0
   -6.1108    1.1859   -2.3666 H   0  0  0  0  0  0  0  0  0  0  0  0
   -5.3182    0.4170   -4.5980 H   0  0  0  0  0  0  0  0  0  0  0  0
   -3.1371   -0.7661   -4.7926 H   0  0  0  0  0  0  0  0  0  0  0  0
   -1.7577   -1.1818   -2.7567 H   0  0  0  0  0  0  0  0  0  0  0  0
  1  2  2  0  0  0  0
  1  6  1  0  0  0  0
  1 36  1  0  0  0  0
  2  3  1  0  0  0  0
  2 37  1  0  0  0  0
  3  4  2  0  0  0  0
  3 14  1  0  0  0  0
  4  5  1  0  0  0  0
  4  7  1  0  0  0  0
  5  6  2  0  0  0  0
  5 38  1  0  0  0  0
  6 39  1  0  0  0  0
  7  8  1  0  0  0  0
  7 40  1  0  0  0  0
  8  9  2  0  0  0  0
  8 13  1  0  0  0  0
  9 10  1  0  0  0  0
  9 15  1  0  0  0  0
 10 11  2  0  0  0  0
 10 41  1  0  0  0  0
 11 12  1  0  0  0  0
 11 42  1  0  0  0  0
 12 13  2  0  0  0  0
 12 43  1  0  0  0  0
 13 44  1  0  0  0  0
 14 16  1  0  0  0  0
 14 19  2  0  0  0  0
 15 20  2  0  0  0  0
 15 23  1  0  0  0  0
 16 17  1  0  0  0  0
 17 18  1  0  0  0  0
 17 45  1  0  0  0  0
 17 46  1  0  0  0  0
 18 19  1  0  0  0  0
 18 30  1  0  0  0  0
 18 47  1  1  0  0  0
 20 21  1  0  0  0  0
 21 22  1  0  0  0  0
 21 24  1  0  0  0  0
 21 48  1  6  0  0  0
 22 23  1  0  0  0  0
 22 49  1  0  0  0  0
 22 50  1  0  0  0  0
 24 25  2  0  0  0  0
 24 29  1  0  0  0  0
 25 26  1  0  0  0  0
 25 51  1  0  0  0  0
 26 27  2  0  0  0  0
 26 52  1  0  0  0  0
 27 28  1  0  0  0  0
 27 53  1  0  0  0  0
 28 29  2  0  0  0  0
 28 54  1  0  0  0  0
 29 55  1  0  0  0  0
 30 31  2  0  0  0  0
 30 35  1  0  0  0  0
 31 32  1  0  0  0  0
 31 56  1  0  0  0  0
 32 33  2  0  0  0  0
 32 57  1  0  0  0  0
 33 34  1  0  0  0  0
 33 58  1  0  0  0  0
 34 35  2  0  0  0  0
 34 59  1  0  0  0  0
 35 60  1  0  0  0  0
M  END
$$$$
