Title Card Required
 OpenBabel03192317563D

 69 75  0  0  1  0  0  0  0  0999 V2000
   -1.3801    3.0331   -2.1566 C   0  0  0  0  0  0  0  0  0  0  0  0
   -2.5015    3.0638   -1.3274 C   0  0  0  0  0  0  0  0  0  0  0  0
   -2.9025    1.8891   -0.6997 C   0  0  0  0  0  0  0  0  0  0  0  0
   -2.2348    0.6772   -0.9245 C   0  0  0  0  0  0  0  0  0  0  0  0
   -1.0776    0.6709   -1.7042 C   0  0  0  0  0  0  0  0  0  0  0  0
   -0.6569    1.8541   -2.3203 C   0  0  0  0  0  0  0  0  0  0  0  0
   -4.0315    1.6897    0.2847 C   0  0  0  0  0  0  0  0  0  0  0  0
   -3.7355    0.2937    0.8546 C   0  0  0  0  0  0  0  0  0  0  0  0
   -3.0324   -0.4586   -0.3084 C   0  0  1  0  0  0  0  0  0  0  0  0
   -4.1019   -1.0085   -1.2946 C   0  0  0  0  0  0  0  0  0  0  0  0
   -4.5866   -2.3135   -0.6424 C   0  0  0  0  0  0  0  0  0  0  0  0
   -3.3418   -2.8006    0.0638 C   0  0  0  0  0  0  0  0  0  0  0  0
   -2.4088   -1.7585    0.1577 C   0  0  0  0  0  0  0  0  0  0  0  0
   -3.0466   -4.0766    0.5323 C   0  0  0  0  0  0  0  0  0  0  0  0
   -1.7850   -4.3210    1.0802 C   0  0  0  0  0  0  0  0  0  0  0  0
   -0.8262   -3.3110    1.1195 C   0  0  0  0  0  0  0  0  0  0  0  0
   -1.1372   -2.0320    0.6506 C   0  0  0  0  0  0  0  0  0  0  0  0
   -0.3541   -0.4787   -1.8896 O   0  0  0  0  0  0  0  0  0  0  0  0
   -0.1579   -1.0676    0.5986 O   0  0  0  0  0  0  0  0  0  0  0  0
    0.7659   -1.0902   -0.7964 P   0  0  2  0  0  0  0  0  0  0  0  0
    1.7381    0.2391   -0.3490 N   0  0  0  0  0  0  0  0  0  0  0  0
    2.9177    0.5249   -1.1895 C   0  0  1  0  0  0  0  0  0  0  0  0
    1.8231    0.8177    1.0138 C   0  0  1  0  0  0  0  0  0  0  0  0
    0.6008    1.6277    1.4322 C   0  0  0  0  0  0  0  0  0  0  0  0
    2.2933   -0.1770    2.0784 C   0  0  0  0  0  0  0  0  0  0  0  0
    4.2041   -0.0488   -0.6085 C   0  0  0  0  0  0  0  0  0  0  0  0
    2.7547    0.0837   -2.6463 C   0  0  0  0  0  0  0  0  0  0  0  0
   -0.2384    1.2438    2.4818 C   0  0  0  0  0  0  0  0  0  0  0  0
   -1.2797    2.0715    2.9015 C   0  0  0  0  0  0  0  0  0  0  0  0
   -1.5005    3.2971    2.2752 C   0  0  0  0  0  0  0  0  0  0  0  0
   -0.6779    3.6830    1.2176 C   0  0  0  0  0  0  0  0  0  0  0  0
    0.3609    2.8533    0.8032 C   0  0  0  0  0  0  0  0  0  0  0  0
    4.3825   -1.4357   -0.5213 C   0  0  0  0  0  0  0  0  0  0  0  0
    5.5398   -1.9675    0.0391 C   0  0  0  0  0  0  0  0  0  0  0  0
    6.5395   -1.1196    0.5226 C   0  0  0  0  0  0  0  0  0  0  0  0
    6.3739    0.2599    0.4358 C   0  0  0  0  0  0  0  0  0  0  0  0
    5.2115    0.7892   -0.1293 C   0  0  0  0  0  0  0  0  0  0  0  0
   -1.0449    3.9422   -2.6592 H   0  0  0  0  0  0  0  0  0  0  0  0
   -3.0417    3.9969   -1.1555 H   0  0  0  0  0  0  0  0  0  0  0  0
    0.2398    1.8329   -2.9394 H   0  0  0  0  0  0  0  0  0  0  0  0
   -5.0099    1.7250   -0.2231 H   0  0  0  0  0  0  0  0  0  0  0  0
   -4.0370    2.4704    1.0597 H   0  0  0  0  0  0  0  0  0  0  0  0
   -4.6267   -0.2378    1.2183 H   0  0  0  0  0  0  0  0  0  0  0  0
   -3.0202    0.3826    1.6857 H   0  0  0  0  0  0  0  0  0  0  0  0
   -4.9026   -0.2802   -1.4862 H   0  0  0  0  0  0  0  0  0  0  0  0
   -3.6067   -1.2329   -2.2518 H   0  0  0  0  0  0  0  0  0  0  0  0
   -5.3967   -2.1244    0.0813 H   0  0  0  0  0  0  0  0  0  0  0  0
   -4.9677   -3.0448   -1.3690 H   0  0  0  0  0  0  0  0  0  0  0  0
   -3.7804   -4.8806    0.4511 H   0  0  0  0  0  0  0  0  0  0  0  0
   -1.5317   -5.3170    1.4464 H   0  0  0  0  0  0  0  0  0  0  0  0
    0.1826   -3.4996    1.4904 H   0  0  0  0  0  0  0  0  0  0  0  0
    3.0256    1.6235   -1.1945 H   0  0  0  0  0  0  0  0  0  0  0  0
    2.6270    1.5669    0.9231 H   0  0  0  0  0  0  0  0  0  0  0  0
    3.2578   -0.6132    1.7879 H   0  0  0  0  0  0  0  0  0  0  0  0
    2.4243    0.3386    3.0405 H   0  0  0  0  0  0  0  0  0  0  0  0
    1.5672   -0.9875    2.2173 H   0  0  0  0  0  0  0  0  0  0  0  0
    1.8214    0.4626   -3.0806 H   0  0  0  0  0  0  0  0  0  0  0  0
    3.6040    0.4661   -3.2283 H   0  0  0  0  0  0  0  0  0  0  0  0
    2.7542   -1.0109   -2.7464 H   0  0  0  0  0  0  0  0  0  0  0  0
   -0.0814    0.2861    2.9792 H   0  0  0  0  0  0  0  0  0  0  0  0
   -1.9184    1.7577    3.7296 H   0  0  0  0  0  0  0  0  0  0  0  0
   -2.3061    3.9517    2.6134 H   0  0  0  0  0  0  0  0  0  0  0  0
   -0.8435    4.6365    0.7134 H   0  0  0  0  0  0  0  0  0  0  0  0
    1.0056    3.1628   -0.0239 H   0  0  0  0  0  0  0  0  0  0  0  0
    3.5962   -2.1060   -0.8801 H   0  0  0  0  0  0  0  0  0  0  0  0
    5.6642   -3.0498    0.1033 H   0  0  0  0  0  0  0  0  0  0  0  0
    7.4452   -1.5371    0.9650 H   0  0  0  0  0  0  0  0  0  0  0  0
    7.1491    0.9299    0.8110 H   0  0  0  0  0  0  0  0  0  0  0  0
    5.0817    1.8730   -0.1908 H   0  0  0  0  0  0  0  0  0  0  0  0
  1  2  2  0  0  0  0
  1  6  1  0  0  0  0
  1 38  1  0  0  0  0
  2  3  1  0  0  0  0
  2 39  1  0  0  0  0
  3  4  2  0  0  0  0
  3  7  1  0  0  0  0
  4  5  1  0  0  0  0
  5  6  2  0  0  0  0
  5 18  1  0  0  0  0
  6 40  1  0  0  0  0
  7  8  1  0  0  0  0
  7 41  1  0  0  0  0
  7 42  1  0  0  0  0
  8  9  1  0  0  0  0
  8 43  1  0  0  0  0
  8 44  1  0  0  0  0
  9  4  1  6  0  0  0
  9 10  1  0  0  0  0
  9 13  1  0  0  0  0
 10 11  1  0  0  0  0
 10 45  1  0  0  0  0
 10 46  1  0  0  0  0
 11 12  1  0  0  0  0
 11 47  1  0  0  0  0
 11 48  1  0  0  0  0
 12 13  2  0  0  0  0
 12 14  1  0  0  0  0
 13 17  1  0  0  0  0
 14 15  2  0  0  0  0
 14 49  1  0  0  0  0
 15 16  1  0  0  0  0
 15 50  1  0  0  0  0
 16 17  2  0  0  0  0
 16 51  1  0  0  0  0
 17 19  1  0  0  0  0
 18 20  1  0  0  0  0
 19 20  1  0  0  0  0
 20 21  1  1  0  0  0
 21 22  1  0  0  0  0
 21 23  1  0  0  0  0
 22 26  1  0  0  0  0
 22 27  1  0  0  0  0
 22 52  1  6  0  0  0
 23 24  1  0  0  0  0
 23 25  1  0  0  0  0
 23 53  1  6  0  0  0
 24 28  2  0  0  0  0
 24 32  1  0  0  0  0
 25 54  1  0  0  0  0
 25 55  1  0  0  0  0
 25 56  1  0  0  0  0
 26 33  2  0  0  0  0
 26 37  1  0  0  0  0
 27 57  1  0  0  0  0
 27 58  1  0  0  0  0
 27 59  1  0  0  0  0
 28 29  1  0  0  0  0
 28 60  1  0  0  0  0
 29 30  2  0  0  0  0
 29 61  1  0  0  0  0
 30 31  1  0  0  0  0
 30 62  1  0  0  0  0
 31 32  2  0  0  0  0
 31 63  1  0  0  0  0
 32 64  1  0  0  0  0
 33 34  1  0  0  0  0
 33 65  1  0  0  0  0
 34 35  2  0  0  0  0
 34 66  1  0  0  0  0
 35 36  1  0  0  0  0
 35 67  1  0  0  0  0
 36 37  2  0  0  0  0
 36 68  1  0  0  0  0
 37 69  1  0  0  0  0
M  END
$$$$
