Title Card Required
 OpenBabel03192317503D

 72 79  0  0  0  0  0  0  0  0999 V2000
   -0.9137   -2.4997   -3.5069 O   0  0  0  0  0  0  0  0  0  0  0  0
   -1.4878   -3.1976   -2.4628 C   0  0  0  0  0  0  0  0  0  0  0  0
   -1.2796   -2.4997   -1.2897 O   0  0  0  0  0  0  0  0  0  0  0  0
   -0.4116   -1.4833   -1.5820 C   0  0  0  0  0  0  0  0  0  0  0  0
   -0.1875   -1.4782   -2.9527 C   0  0  0  0  0  0  0  0  0  0  0  0
    0.1576   -0.5636   -0.7277 C   0  0  0  0  0  0  0  0  0  0  0  0
    1.0319    0.3884   -1.3178 C   0  0  0  0  0  0  0  0  0  0  0  0
    1.2492    0.3810   -2.6979 C   0  0  0  0  0  0  0  0  0  0  0  0
    0.6343   -0.5525   -3.5518 C   0  0  0  0  0  0  0  0  0  0  0  0
    0.9135   -2.5019    3.5054 O   0  0  0  0  0  0  0  0  0  0  0  0
    1.4870   -3.1997    2.4608 C   0  0  0  0  0  0  0  0  0  0  0  0
    1.2795   -2.5007    1.2882 O   0  0  0  0  0  0  0  0  0  0  0  0
    0.4116   -1.4843    1.5810 C   0  0  0  0  0  0  0  0  0  0  0  0
    0.1874   -1.4800    2.9518 C   0  0  0  0  0  0  0  0  0  0  0  0
   -0.1572   -0.5639    0.7272 C   0  0  0  0  0  0  0  0  0  0  0  0
   -1.0313    0.3879    1.3179 C   0  0  0  0  0  0  0  0  0  0  0  0
   -1.2488    0.3798    2.6979 C   0  0  0  0  0  0  0  0  0  0  0  0
   -0.6341   -0.5544    3.5513 C   0  0  0  0  0  0  0  0  0  0  0  0
    0.9422   -4.4103    2.3718 F   0  0  0  0  0  0  0  0  0  0  0  0
    2.7799   -3.3717    2.6772 F   0  0  0  0  0  0  0  0  0  0  0  0
   -0.9443   -4.4089   -2.3747 F   0  0  0  0  0  0  0  0  0  0  0  0
   -2.7809   -3.3682   -2.6792 F   0  0  0  0  0  0  0  0  0  0  0  0
   -1.8108    1.6016    0.1445 P   0  0  0  0  0  0  0  0  0  0  0  0
   -3.0096    0.4678   -0.6797 C   0  0  0  0  0  0  0  0  0  0  0  0
   -3.1540    0.5867   -2.0669 C   0  0  0  0  0  0  0  0  0  0  0  0
   -4.0151   -0.2602   -2.7653 C   0  0  0  0  0  0  0  0  0  0  0  0
   -4.7427   -1.2304   -2.0790 C   0  0  0  0  0  0  0  0  0  0  0  0
   -4.5953   -1.3666   -0.6985 C   0  0  0  0  0  0  0  0  0  0  0  0
   -3.7271   -0.5280   -0.0034 C   0  0  0  0  0  0  0  0  0  0  0  0
   -2.8523    2.5886    1.2967 C   0  0  0  0  0  0  0  0  0  0  0  0
   -2.1805    3.5632    2.0513 C   0  0  0  0  0  0  0  0  0  0  0  0
   -2.8763    4.3794    2.9388 C   0  0  0  0  0  0  0  0  0  0  0  0
   -4.2608    4.2521    3.0640 C   0  0  0  0  0  0  0  0  0  0  0  0
   -4.9392    3.3059    2.2993 C   0  0  0  0  0  0  0  0  0  0  0  0
   -4.2405    2.4746    1.4215 C   0  0  0  0  0  0  0  0  0  0  0  0
    1.8114    1.6016   -0.1439 P   0  0  0  0  0  0  0  0  0  0  0  0
    3.0096    0.4671    0.6803 C   0  0  0  0  0  0  0  0  0  0  0  0
    3.1525    0.5845    2.0677 C   0  0  0  0  0  0  0  0  0  0  0  0
    4.0126   -0.2634    2.7662 C   0  0  0  0  0  0  0  0  0  0  0  0
    4.7408   -1.2329    2.0797 C   0  0  0  0  0  0  0  0  0  0  0  0
    4.5949   -1.3676    0.6988 C   0  0  0  0  0  0  0  0  0  0  0  0
    3.7277   -0.5280    0.0037 C   0  0  0  0  0  0  0  0  0  0  0  0
    2.8534    2.5887   -1.2955 C   0  0  0  0  0  0  0  0  0  0  0  0
    2.1820    3.5637   -2.0500 C   0  0  0  0  0  0  0  0  0  0  0  0
    2.8780    4.3800   -2.9372 C   0  0  0  0  0  0  0  0  0  0  0  0
    4.2626    4.2524   -3.0622 C   0  0  0  0  0  0  0  0  0  0  0  0
    4.9406    3.3059   -2.2977 C   0  0  0  0  0  0  0  0  0  0  0  0
    4.2416    2.4745   -1.4202 C   0  0  0  0  0  0  0  0  0  0  0  0
    1.9271    1.1155   -3.1349 H   0  0  0  0  0  0  0  0  0  0  0  0
    0.8075   -0.5537   -4.6268 H   0  0  0  0  0  0  0  0  0  0  0  0
   -1.9265    1.1142    3.1353 H   0  0  0  0  0  0  0  0  0  0  0  0
   -0.8074   -0.5562    4.6263 H   0  0  0  0  0  0  0  0  0  0  0  0
   -2.5743    1.3425   -2.6032 H   0  0  0  0  0  0  0  0  0  0  0  0
   -4.1133   -0.1651   -3.8479 H   0  0  0  0  0  0  0  0  0  0  0  0
   -5.4085   -1.9000   -2.6255 H   0  0  0  0  0  0  0  0  0  0  0  0
   -5.1481   -2.1404   -0.1635 H   0  0  0  0  0  0  0  0  0  0  0  0
   -3.5988   -0.6494    1.0755 H   0  0  0  0  0  0  0  0  0  0  0  0
   -1.0977    3.6753    1.9407 H   0  0  0  0  0  0  0  0  0  0  0  0
   -2.3385    5.1260    3.5253 H   0  0  0  0  0  0  0  0  0  0  0  0
   -4.8108    4.8965    3.7516 H   0  0  0  0  0  0  0  0  0  0  0  0
   -6.0228    3.2089    2.3853 H   0  0  0  0  0  0  0  0  0  0  0  0
   -4.7842    1.7361    0.8301 H   0  0  0  0  0  0  0  0  0  0  0  0
    2.5723    1.3398    2.6042 H   0  0  0  0  0  0  0  0  0  0  0  0
    4.1096   -0.1695    3.8490 H   0  0  0  0  0  0  0  0  0  0  0  0
    5.4058   -1.9034    2.6262 H   0  0  0  0  0  0  0  0  0  0  0  0
    5.1481   -2.1409    0.1636 H   0  0  0  0  0  0  0  0  0  0  0  0
    3.6005   -0.6483   -1.0755 H   0  0  0  0  0  0  0  0  0  0  0  0
    1.0992    3.6760   -1.9395 H   0  0  0  0  0  0  0  0  0  0  0  0
    2.3404    5.1269   -3.5235 H   0  0  0  0  0  0  0  0  0  0  0  0
    4.8127    4.8969   -3.7496 H   0  0  0  0  0  0  0  0  0  0  0  0
    6.0242    3.2087   -2.3835 H   0  0  0  0  0  0  0  0  0  0  0  0
    4.7851    1.7357   -0.8289 H   0  0  0  0  0  0  0  0  0  0  0  0
  1  2  1  0  0  0  0
  1  5  1  0  0  0  0
  2  3  1  0  0  0  0
  2 21  1  0  0  0  0
  2 22  1  0  0  0  0
  3  4  1  0  0  0  0
  4  5  2  0  0  0  0
  4  6  1  0  0  0  0
  5  9  1  0  0  0  0
  6  7  2  0  0  0  0
  6 15  1  0  0  0  0
  7  8  1  0  0  0  0
  7 36  1  0  0  0  0
  8  9  2  0  0  0  0
  8 49  1  0  0  0  0
  9 50  1  0  0  0  0
 10 11  1  0  0  0  0
 10 14  1  0  0  0  0
 11 12  1  0  0  0  0
 11 19  1  0  0  0  0
 11 20  1  0  0  0  0
 12 13  1  0  0  0  0
 13 14  2  0  0  0  0
 13 15  1  0  0  0  0
 14 18  1  0  0  0  0
 15 16  2  0  0  0  0
 16 17  1  0  0  0  0
 16 23  1  0  0  0  0
 17 18  2  0  0  0  0
 17 51  1  0  0  0  0
 18 52  1  0  0  0  0
 23 24  1  0  0  0  0
 23 30  1  0  0  0  0
 24 25  2  0  0  0  0
 24 29  1  0  0  0  0
 25 26  1  0  0  0  0
 25 53  1  0  0  0  0
 26 27  2  0  0  0  0
 26 54  1  0  0  0  0
 27 28  1  0  0  0  0
 27 55  1  0  0  0  0
 28 29  2  0  0  0  0
 28 56  1  0  0  0  0
 29 57  1  0  0  0  0
 30 31  2  0  0  0  0
 30 35  1  0  0  0  0
 31 32  1  0  0  0  0
 31 58  1  0  0  0  0
 32 33  2  0  0  0  0
 32 59  1  0  0  0  0
 33 34  1  0  0  0  0
 33 60  1  0  0  0  0
 34 35  2  0  0  0  0
 34 61  1  0  0  0  0
 35 62  1  0  0  0  0
 36 37  1  0  0  0  0
 36 43  1  0  0  0  0
 37 38  2  0  0  0  0
 37 42  1  0  0  0  0
 38 39  1  0  0  0  0
 38 63  1  0  0  0  0
 39 40  2  0  0  0  0
 39 64  1  0  0  0  0
 40 41  1  0  0  0  0
 40 65  1  0  0  0  0
 41 42  2  0  0  0  0
 41 66  1  0  0  0  0
 42 67  1  0  0  0  0
 43 44  2  0  0  0  0
 43 48  1  0  0  0  0
 44 45  1  0  0  0  0
 44 68  1  0  0  0  0
 45 46  2  0  0  0  0
 45 69  1  0  0  0  0
 46 47  1  0  0  0  0
 46 70  1  0  0  0  0
 47 48  2  0  0  0  0
 47 71  1  0  0  0  0
 48 72  1  0  0  0  0
M  END
$$$$
