Title Card Required
 OpenBabel03192317513D

 78 85  0  0  0  0  0  0  0  0999 V2000
   -0.6461    0.8633    4.7275 O   0  0  0  0  0  0  0  0  0  0  0  0
   -0.0468    0.5800    3.5403 C   0  0  0  0  0  0  0  0  0  0  0  0
   -0.4942    1.1531    2.3398 C   0  0  0  0  0  0  0  0  0  0  0  0
   -1.5119    2.0538    2.3195 O   0  0  0  0  0  0  0  0  0  0  0  0
   -1.8865    2.5544    3.5839 C   0  0  0  0  0  0  0  0  0  0  0  0
   -1.9355    1.4223    4.5890 C   0  0  0  0  0  0  0  0  0  0  0  0
    0.0928    0.7854    1.1194 C   0  0  0  0  0  0  0  0  0  0  0  0
    1.1780   -0.1091    1.1083 C   0  0  0  0  0  0  0  0  0  0  0  0
    1.6356   -0.6427    2.3225 C   0  0  0  0  0  0  0  0  0  0  0  0
    1.0261   -0.3088    3.5240 C   0  0  0  0  0  0  0  0  0  0  0  0
    0.5804    3.6037   -2.8414 O   0  0  0  0  0  0  0  0  0  0  0  0
   -0.1981    2.7882   -2.0796 C   0  0  0  0  0  0  0  0  0  0  0  0
    0.2799    2.2734   -0.8636 C   0  0  0  0  0  0  0  0  0  0  0  0
    1.5010    2.6057   -0.3764 O   0  0  0  0  0  0  0  0  0  0  0  0
    2.2300    3.5748   -1.1024 C   0  0  0  0  0  0  0  0  0  0  0  0
    1.9604    3.4346   -2.5856 C   0  0  0  0  0  0  0  0  0  0  0  0
   -0.4860    1.3602   -0.1318 C   0  0  0  0  0  0  0  0  0  0  0  0
   -1.7583    0.9855   -0.5969 C   0  0  0  0  0  0  0  0  0  0  0  0
   -2.2483    1.5515   -1.7800 C   0  0  0  0  0  0  0  0  0  0  0  0
   -1.4717    2.4402   -2.5182 C   0  0  0  0  0  0  0  0  0  0  0  0
   -2.6627   -0.3187    0.3566 P   0  0  0  0  0  0  0  0  0  0  0  0
   -4.3217   -0.2232   -0.4478 C   0  0  0  0  0  0  0  0  0  0  0  0
   -4.7790   -1.0985   -1.4387 C   0  0  0  0  0  0  0  0  0  0  0  0
   -6.0556   -0.9430   -1.9827 C   0  0  0  0  0  0  0  0  0  0  0  0
   -6.8842    0.0904   -1.5504 C   0  0  0  0  0  0  0  0  0  0  0  0
   -6.4369    0.9672   -0.5607 C   0  0  0  0  0  0  0  0  0  0  0  0
   -5.1699    0.8033   -0.0073 C   0  0  0  0  0  0  0  0  0  0  0  0
   -1.9743   -1.8463   -0.4234 C   0  0  0  0  0  0  0  0  0  0  0  0
   -2.2458   -3.0640    0.2170 C   0  0  0  0  0  0  0  0  0  0  0  0
   -1.8108   -4.2701   -0.3311 C   0  0  0  0  0  0  0  0  0  0  0  0
   -1.0739   -4.2716   -1.5161 C   0  0  0  0  0  0  0  0  0  0  0  0
   -0.7731   -3.0641   -2.1445 C   0  0  0  0  0  0  0  0  0  0  0  0
   -1.2234   -1.8575   -1.6064 C   0  0  0  0  0  0  0  0  0  0  0  0
    1.9509   -0.5523   -0.5132 P   0  0  0  0  0  0  0  0  0  0  0  0
    3.5180    0.4338   -0.5016 C   0  0  0  0  0  0  0  0  0  0  0  0
    4.0513    1.0633    0.6296 C   0  0  0  0  0  0  0  0  0  0  0  0
    5.2205    1.8172    0.5343 C   0  0  0  0  0  0  0  0  0  0  0  0
    5.8769    1.9528   -0.6906 C   0  0  0  0  0  0  0  0  0  0  0  0
    5.3521    1.3345   -1.8245 C   0  0  0  0  0  0  0  0  0  0  0  0
    4.1762    0.5878   -1.7290 C   0  0  0  0  0  0  0  0  0  0  0  0
    2.5880   -2.2404   -0.1170 C   0  0  0  0  0  0  0  0  0  0  0  0
    1.6474   -3.2080    0.2683 C   0  0  0  0  0  0  0  0  0  0  0  0
    2.0389   -4.5218    0.5076 C   0  0  0  0  0  0  0  0  0  0  0  0
    3.3756   -4.8950    0.3562 C   0  0  0  0  0  0  0  0  0  0  0  0
    4.3151   -3.9419   -0.0291 C   0  0  0  0  0  0  0  0  0  0  0  0
    3.9261   -2.6211   -0.2628 C   0  0  0  0  0  0  0  0  0  0  0  0
   -2.8689    3.0281    3.4630 H   0  0  0  0  0  0  0  0  0  0  0  0
   -1.1594    3.3147    3.9195 H   0  0  0  0  0  0  0  0  0  0  0  0
   -2.2435    1.7764    5.5803 H   0  0  0  0  0  0  0  0  0  0  0  0
   -2.6436    0.6511    4.2384 H   0  0  0  0  0  0  0  0  0  0  0  0
    2.4713   -1.3448    2.3244 H   0  0  0  0  0  0  0  0  0  0  0  0
    1.3542   -0.7331    4.4735 H   0  0  0  0  0  0  0  0  0  0  0  0
    3.2925    3.4046   -0.8742 H   0  0  0  0  0  0  0  0  0  0  0  0
    1.9385    4.5844   -0.7653 H   0  0  0  0  0  0  0  0  0  0  0  0
    2.4949    4.2035   -3.1566 H   0  0  0  0  0  0  0  0  0  0  0  0
    2.2861    2.4359   -2.9276 H   0  0  0  0  0  0  0  0  0  0  0  0
   -3.2355    1.2724   -2.1507 H   0  0  0  0  0  0  0  0  0  0  0  0
   -1.8239    2.8614   -3.4605 H   0  0  0  0  0  0  0  0  0  0  0  0
   -4.1338   -1.9044   -1.7943 H   0  0  0  0  0  0  0  0  0  0  0  0
   -6.4008   -1.6328   -2.7548 H   0  0  0  0  0  0  0  0  0  0  0  0
   -7.8794    0.2119   -1.9814 H   0  0  0  0  0  0  0  0  0  0  0  0
   -7.0814    1.7771   -0.2149 H   0  0  0  0  0  0  0  0  0  0  0  0
   -4.8224    1.4864    0.7732 H   0  0  0  0  0  0  0  0  0  0  0  0
   -2.8127   -3.0640    1.1517 H   0  0  0  0  0  0  0  0  0  0  0  0
   -2.0400   -5.2102    0.1742 H   0  0  0  0  0  0  0  0  0  0  0  0
   -0.7176   -5.2124   -1.9392 H   0  0  0  0  0  0  0  0  0  0  0  0
   -0.1758   -3.0567   -3.0577 H   0  0  0  0  0  0  0  0  0  0  0  0
   -0.9807   -0.9192   -2.1086 H   0  0  0  0  0  0  0  0  0  0  0  0
    3.5389    0.9790    1.5894 H   0  0  0  0  0  0  0  0  0  0  0  0
    5.6225    2.3035    1.4249 H   0  0  0  0  0  0  0  0  0  0  0  0
    6.7930    2.5418   -0.7593 H   0  0  0  0  0  0  0  0  0  0  0  0
    5.8545    1.4368   -2.7882 H   0  0  0  0  0  0  0  0  0  0  0  0
    3.7598    0.1155   -2.6236 H   0  0  0  0  0  0  0  0  0  0  0  0
    0.5979   -2.9256    0.3937 H   0  0  0  0  0  0  0  0  0  0  0  0
    1.2915   -5.2574    0.8120 H   0  0  0  0  0  0  0  0  0  0  0  0
    3.6827   -5.9256    0.5418 H   0  0  0  0  0  0  0  0  0  0  0  0
    5.3637   -4.2221   -0.1436 H   0  0  0  0  0  0  0  0  0  0  0  0
    4.6770   -1.8840   -0.5541 H   0  0  0  0  0  0  0  0  0  0  0  0
  1  2  1  0  0  0  0
  1  6  1  0  0  0  0
  2  3  2  0  0  0  0
  2 10  1  0  0  0  0
  3  4  1  0  0  0  0
  3  7  1  0  0  0  0
  4  5  1  0  0  0  0
  5  6  1  0  0  0  0
  5 47  1  0  0  0  0
  5 48  1  0  0  0  0
  6 49  1  0  0  0  0
  6 50  1  0  0  0  0
  7  8  2  0  0  0  0
  7 17  1  0  0  0  0
  8  9  1  0  0  0  0
  8 34  1  0  0  0  0
  9 10  2  0  0  0  0
  9 51  1  0  0  0  0
 10 52  1  0  0  0  0
 11 12  1  0  0  0  0
 11 16  1  0  0  0  0
 12 13  2  0  0  0  0
 12 20  1  0  0  0  0
 13 14  1  0  0  0  0
 13 17  1  0  0  0  0
 14 15  1  0  0  0  0
 15 16  1  0  0  0  0
 15 53  1  0  0  0  0
 15 54  1  0  0  0  0
 16 55  1  0  0  0  0
 16 56  1  0  0  0  0
 17 18  2  0  0  0  0
 18 19  1  0  0  0  0
 18 21  1  0  0  0  0
 19 20  2  0  0  0  0
 19 57  1  0  0  0  0
 20 58  1  0  0  0  0
 21 22  1  0  0  0  0
 21 28  1  0  0  0  0
 22 23  2  0  0  0  0
 22 27  1  0  0  0  0
 23 24  1  0  0  0  0
 23 59  1  0  0  0  0
 24 25  2  0  0  0  0
 24 60  1  0  0  0  0
 25 26  1  0  0  0  0
 25 61  1  0  0  0  0
 26 27  2  0  0  0  0
 26 62  1  0  0  0  0
 27 63  1  0  0  0  0
 28 29  2  0  0  0  0
 28 33  1  0  0  0  0
 29 30  1  0  0  0  0
 29 64  1  0  0  0  0
 30 31  2  0  0  0  0
 30 65  1  0  0  0  0
 31 32  1  0  0  0  0
 31 66  1  0  0  0  0
 32 33  2  0  0  0  0
 32 67  1  0  0  0  0
 33 68  1  0  0  0  0
 34 35  1  0  0  0  0
 34 41  1  0  0  0  0
 35 36  2  0  0  0  0
 35 40  1  0  0  0  0
 36 37  1  0  0  0  0
 36 69  1  0  0  0  0
 37 38  2  0  0  0  0
 37 70  1  0  0  0  0
 38 39  1  0  0  0  0
 38 71  1  0  0  0  0
 39 40  2  0  0  0  0
 39 72  1  0  0  0  0
 40 73  1  0  0  0  0
 41 42  2  0  0  0  0
 41 46  1  0  0  0  0
 42 43  1  0  0  0  0
 42 74  1  0  0  0  0
 43 44  2  0  0  0  0
 43 75  1  0  0  0  0
 44 45  1  0  0  0  0
 44 76  1  0  0  0  0
 45 46  2  0  0  0  0
 45 77  1  0  0  0  0
 46 78  1  0  0  0  0
M  END
$$$$
