Title Card Required
 OpenBabel03192317543D

 66 69  0  0  1  0  0  0  0  0999 V2000
    1.7485    0.2046    0.9965 P   0  0  0  0  0  0  0  0  0  0  0  0
    2.4355    1.7471    0.2534 C   0  0  0  0  0  0  0  0  0  0  0  0
    3.0912   -1.0097    0.6202 C   0  0  0  0  0  0  0  0  0  0  0  0
    1.7500    2.5455   -0.6706 C   0  0  0  0  0  0  0  0  0  0  0  0
    2.2961    3.7512   -1.1151 C   0  0  0  0  0  0  0  0  0  0  0  0
    3.5362    4.1765   -0.6469 C   0  0  0  0  0  0  0  0  0  0  0  0
    4.2275    3.3924    0.2788 C   0  0  0  0  0  0  0  0  0  0  0  0
    3.6786    2.1960    0.7293 C   0  0  0  0  0  0  0  0  0  0  0  0
    3.2227   -2.0883    1.5059 C   0  0  0  0  0  0  0  0  0  0  0  0
    4.1662   -3.0898    1.2814 C   0  0  0  0  0  0  0  0  0  0  0  0
    5.0094   -3.0128    0.1740 C   0  0  0  0  0  0  0  0  0  0  0  0
    4.9107   -1.9284   -0.6986 C   0  0  0  0  0  0  0  0  0  0  0  0
    3.9616   -0.9310   -0.4763 C   0  0  0  0  0  0  0  0  0  0  0  0
   -2.0766   -1.3148   -0.4695 S   0  0  2  0  0  3  0  0  0  0  0  0
   -3.0979   -2.4649    0.5664 C   0  0  0  0  0  0  0  0  0  0  0  0
   -3.0755   -2.0199    2.0262 C   0  0  0  0  0  0  0  0  0  0  0  0
   -4.5089   -2.3321   -0.0104 C   0  0  0  0  0  0  0  0  0  0  0  0
   -2.6002   -3.9015    0.4294 C   0  0  0  0  0  0  0  0  0  0  0  0
    0.4001   -0.2138   -0.2459 C   0  0  1  0  0  0  0  0  0  0  0  0
    0.7956   -0.4083   -1.7241 C   0  0  0  0  0  0  0  0  0  0  0  0
   -0.3438   -1.5133    0.1179 C   0  0  2  0  0  0  0  0  0  0  0  0
    0.4057   -2.6044   -0.6556 C   0  0  0  0  0  0  0  0  0  0  0  0
    0.8512   -1.9342   -1.9690 C   0  0  0  0  0  0  0  0  0  0  0  0
    0.7764    2.2398   -1.0578 H   0  0  0  0  0  0  0  0  0  0  0  0
    1.7433    4.3559   -1.8357 H   0  0  0  0  0  0  0  0  0  0  0  0
    3.9634    5.1166   -0.9992 H   0  0  0  0  0  0  0  0  0  0  0  0
    5.1980    3.7188    0.6562 H   0  0  0  0  0  0  0  0  0  0  0  0
    4.2265    1.5943    1.4598 H   0  0  0  0  0  0  0  0  0  0  0  0
    2.5724   -2.1396    2.3834 H   0  0  0  0  0  0  0  0  0  0  0  0
    4.2499   -3.9254    1.9780 H   0  0  0  0  0  0  0  0  0  0  0  0
    5.7541   -3.7906   -0.0023 H   0  0  0  0  0  0  0  0  0  0  0  0
    5.5812   -1.8566   -1.5566 H   0  0  0  0  0  0  0  0  0  0  0  0
    3.9069   -0.0766   -1.1547 H   0  0  0  0  0  0  0  0  0  0  0  0
   -3.4608   -0.9970    2.1323 H   0  0  0  0  0  0  0  0  0  0  0  0
   -3.7053   -2.6973    2.6249 H   0  0  0  0  0  0  0  0  0  0  0  0
   -2.0599   -2.0552    2.4472 H   0  0  0  0  0  0  0  0  0  0  0  0
   -4.5375   -2.6387   -1.0660 H   0  0  0  0  0  0  0  0  0  0  0  0
   -5.1942   -2.9782    0.5598 H   0  0  0  0  0  0  0  0  0  0  0  0
   -4.8749   -1.2969    0.0609 H   0  0  0  0  0  0  0  0  0  0  0  0
   -2.5906   -4.2168   -0.6234 H   0  0  0  0  0  0  0  0  0  0  0  0
   -1.5876   -4.0211    0.8421 H   0  0  0  0  0  0  0  0  0  0  0  0
   -3.2722   -4.5725    0.9880 H   0  0  0  0  0  0  0  0  0  0  0  0
    1.7407    0.0931   -1.9722 H   0  0  0  0  0  0  0  0  0  0  0  0
    1.2810   -2.9174   -0.0684 H   0  0  0  0  0  0  0  0  0  0  0  0
    1.8604   -2.2644   -2.2507 H   0  0  0  0  0  0  0  0  0  0  0  0
   -3.0423    0.6515   -2.3109 Fe  0  0  0  0  0  0  0  0  0  0  0  0
   -2.1140    1.6296    1.9306 C   0  0  0  0  0  0  0  0  0  0  0  0
   -2.6055    3.8133    1.1000 C   0  0  0  0  0  0  0  0  0  0  0  0
   -3.9675    3.1067    1.2797 C   0  0  0  0  0  0  0  0  0  0  0  0
   -3.6303    1.6491    1.6867 C   0  0  0  0  0  0  0  0  0  0  0  0
   -1.6033    2.6683    0.9313 C   0  0  0  0  0  0  0  0  0  0  0  0
   -1.6753    0.6299    1.7902 H   0  0  0  0  0  0  0  0  0  0  0  0
   -2.3504    4.3799    2.0092 H   0  0  0  0  0  0  0  0  0  0  0  0
   -4.5840    3.6117    2.0360 H   0  0  0  0  0  0  0  0  0  0  0  0
   -4.2120    1.2996    2.5515 H   0  0  0  0  0  0  0  0  0  0  0  0
   -1.6954    2.2569   -0.0922 H   0  0  0  0  0  0  0  0  0  0  0  0
   -0.2814    0.6375   -0.1005 H   0  0  0  0  0  0  0  0  0  0  0  0
    0.0226    0.0505   -2.3634 H   0  0  0  0  0  0  0  0  0  0  0  0
   -0.3862   -1.6873    1.2041 H   0  0  0  0  0  0  0  0  0  0  0  0
   -0.2152   -3.4926   -0.8242 H   0  0  0  0  0  0  0  0  0  0  0  0
    0.1769   -2.2092   -2.7918 H   0  0  0  0  0  0  0  0  0  0  0  0
   -1.8774    1.9597    2.9551 H   0  0  0  0  0  0  0  0  0  0  0  0
   -2.5972    4.5222    0.2610 H   0  0  0  0  0  0  0  0  0  0  0  0
   -4.5433    3.1189    0.3426 H   0  0  0  0  0  0  0  0  0  0  0  0
   -3.8509    0.9690    0.8466 H   0  0  0  0  0  0  0  0  0  0  0  0
   -0.5554    2.9660    1.0859 H   0  0  0  0  0  0  0  0  0  0  0  0
  1  2  1  0  0  0  0
  1  3  1  0  0  0  0
  1 19  1  0  0  0  0
  2  4  2  0  0  0  0
  2  8  1  0  0  0  0
  3  9  2  0  0  0  0
  3 13  1  0  0  0  0
  4  5  1  0  0  0  0
  4 24  1  0  0  0  0
  5  6  2  0  0  0  0
  5 25  1  0  0  0  0
  6  7  1  0  0  0  0
  6 26  1  0  0  0  0
  7  8  2  0  0  0  0
  7 27  1  0  0  0  0
  8 28  1  0  0  0  0
  9 10  1  0  0  0  0
  9 29  1  0  0  0  0
 10 11  2  0  0  0  0
 10 30  1  0  0  0  0
 11 12  1  0  0  0  0
 11 31  1  0  0  0  0
 12 13  2  0  0  0  0
 12 32  1  0  0  0  0
 13 33  1  0  0  0  0
 14 15  1  0  0  0  0
 14 21  1  0  0  0  0
 14 46  1  1  0  0  0
 15 16  1  0  0  0  0
 15 17  1  0  0  0  0
 15 18  1  0  0  0  0
 16 34  1  0  0  0  0
 16 35  1  0  0  0  0
 16 36  1  0  0  0  0
 17 37  1  0  0  0  0
 17 38  1  0  0  0  0
 17 39  1  0  0  0  0
 18 40  1  0  0  0  0
 18 41  1  0  0  0  0
 18 42  1  0  0  0  0
 19 20  1  0  0  0  0
 19 21  1  0  0  0  0
 19 57  1  1  0  0  0
 20 23  1  0  0  0  0
 20 43  1  0  0  0  0
 20 58  1  0  0  0  0
 21 22  1  0  0  0  0
 21 59  1  1  0  0  0
 22 23  1  0  0  0  0
 22 44  1  0  0  0  0
 22 60  1  0  0  0  0
 23 45  1  0  0  0  0
 23 61  1  0  0  0  0
 47 50  1  0  0  0  0
 47 51  1  0  0  0  0
 47 52  1  0  0  0  0
 47 62  1  0  0  0  0
 48 49  1  0  0  0  0
 48 51  1  0  0  0  0
 48 53  1  0  0  0  0
 48 63  1  0  0  0  0
 49 50  1  0  0  0  0
 49 54  1  0  0  0  0
 49 64  1  0  0  0  0
 50 55  1  0  0  0  0
 50 65  1  0  0  0  0
 51 56  1  0  0  0  0
 51 66  1  0  0  0  0
 52 57  1  0  0  0  0
M  END
$$$$
