Title Card Required
 OpenBabel03192317543D

 50 53  0  0  1  0  0  0  0  0999 V2000
    0.4424    0.8101    1.5943 C   0  0  2  0  0  0  0  0  0  0  0  0
    0.1078   -0.2593    2.4291 O   0  0  0  0  0  0  0  0  0  0  0  0
   -2.7832    2.7892   -0.5897 N   0  0  0  0  0  0  0  0  0  0  0  0
   -1.7162    3.4050   -0.1607 C   0  0  0  0  0  0  0  0  0  0  0  0
   -0.6768    2.7575    0.5528 C   0  0  0  0  0  0  0  0  0  0  0  0
   -0.7333    1.4084    0.8224 C   0  0  0  0  0  0  0  0  0  0  0  0
   -1.9036    0.7014    0.3776 C   0  0  0  0  0  0  0  0  0  0  0  0
   -2.1333   -0.6836    0.5735 C   0  0  0  0  0  0  0  0  0  0  0  0
   -3.2731   -1.2966    0.0918 C   0  0  0  0  0  0  0  0  0  0  0  0
   -4.2534   -0.5428   -0.6065 C   0  0  0  0  0  0  0  0  0  0  0  0
   -4.0553    0.8005   -0.8039 C   0  0  0  0  0  0  0  0  0  0  0  0
   -2.8914    1.4587   -0.3304 C   0  0  0  0  0  0  0  0  0  0  0  0
   -3.3916   -2.6241    0.3245 O   0  0  0  0  0  0  0  0  0  0  0  0
   -4.5340   -3.2939   -0.1366 C   0  0  0  0  0  0  0  0  0  0  0  0
    1.5241   -0.9710    0.2239 N   0  0  2  0  0  0  0  0  0  0  0  0
    1.6892    0.3831    0.7731 C   0  0  1  0  0  0  0  0  0  0  0  0
    2.2395    1.3380   -0.3005 C   0  0  0  0  0  0  0  0  0  0  0  0
    2.8930    0.4643   -1.3890 C   0  0  1  0  0  0  0  0  0  0  0  0
    3.7919   -0.6200   -0.7611 C   0  0  2  0  0  0  0  0  0  0  0  0
    2.8591   -1.5575    0.0689 C   0  0  0  0  0  0  0  0  0  0  0  0
    1.7665   -0.2474   -2.1455 C   0  0  0  0  0  0  0  0  0  0  0  0
    0.8664   -0.9376   -1.0898 C   0  0  0  0  0  0  0  0  0  0  0  0
    4.9529   -0.0447    0.0532 C   0  0  0  0  0  0  0  0  0  0  0  0
    5.9881   -1.0953    0.4410 C   0  0  0  0  0  0  0  0  0  0  0  0
    3.4873    1.0879   -2.0731 H   0  0  0  0  0  0  0  0  0  0  0  0
    0.7949    1.6364    2.2355 H   0  0  0  0  0  0  0  0  0  0  0  0
    0.4308   -1.0484    1.9592 H   0  0  0  0  0  0  0  0  0  0  0  0
   -1.6414    4.4783   -0.3663 H   0  0  0  0  0  0  0  0  0  0  0  0
    0.1749    3.3481    0.8995 H   0  0  0  0  0  0  0  0  0  0  0  0
   -1.4212   -1.2994    1.1124 H   0  0  0  0  0  0  0  0  0  0  0  0
   -5.1580   -1.0157   -0.9861 H   0  0  0  0  0  0  0  0  0  0  0  0
   -4.7845    1.4117   -1.3360 H   0  0  0  0  0  0  0  0  0  0  0  0
   -5.4545   -2.8895    0.3164 H   0  0  0  0  0  0  0  0  0  0  0  0
   -4.6226   -3.2415   -1.2347 H   0  0  0  0  0  0  0  0  0  0  0  0
   -4.4232   -4.3426    0.1606 H   0  0  0  0  0  0  0  0  0  0  0  0
    2.4542    0.2681    1.5574 H   0  0  0  0  0  0  0  0  0  0  0  0
    1.4366    1.9324   -0.7633 H   0  0  0  0  0  0  0  0  0  0  0  0
    2.9554    2.0474    0.1410 H   0  0  0  0  0  0  0  0  0  0  0  0
    4.2307   -1.1989   -1.5917 H   0  0  0  0  0  0  0  0  0  0  0  0
    2.7430   -2.5395   -0.4130 H   0  0  0  0  0  0  0  0  0  0  0  0
    3.2798   -1.7367    1.0712 H   0  0  0  0  0  0  0  0  0  0  0  0
    2.1932   -0.9789   -2.8492 H   0  0  0  0  0  0  0  0  0  0  0  0
    1.1833    0.4728   -2.7380 H   0  0  0  0  0  0  0  0  0  0  0  0
    0.6201   -1.9704   -1.3761 H   0  0  0  0  0  0  0  0  0  0  0  0
   -0.0856   -0.4056   -0.9877 H   0  0  0  0  0  0  0  0  0  0  0  0
    5.4412    0.7506   -0.5349 H   0  0  0  0  0  0  0  0  0  0  0  0
    4.5641    0.4437    0.9629 H   0  0  0  0  0  0  0  0  0  0  0  0
    6.4352   -1.5526   -0.4544 H   0  0  0  0  0  0  0  0  0  0  0  0
    6.8008   -0.6588    1.0378 H   0  0  0  0  0  0  0  0  0  0  0  0
    5.5378   -1.9044    1.0357 H   0  0  0  0  0  0  0  0  0  0  0  0
  1  2  1  0  0  0  0
  1  6  1  0  0  0  0
  1 16  1  0  0  0  0
  1 26  1  1  0  0  0
  2 27  1  0  0  0  0
  3  4  2  0  0  0  0
  3 12  1  0  0  0  0
  4  5  1  0  0  0  0
  4 28  1  0  0  0  0
  5  6  2  0  0  0  0
  5 29  1  0  0  0  0
  6  7  1  0  0  0  0
  7  8  2  0  0  0  0
  7 12  1  0  0  0  0
  8  9  1  0  0  0  0
  8 30  1  0  0  0  0
  9 10  2  0  0  0  0
  9 13  1  0  0  0  0
 10 11  1  0  0  0  0
 10 31  1  0  0  0  0
 11 12  2  0  0  0  0
 11 32  1  0  0  0  0
 13 14  1  0  0  0  0
 14 33  1  0  0  0  0
 14 34  1  0  0  0  0
 14 35  1  0  0  0  0
 15 16  1  0  0  0  0
 15 20  1  6  0  0  0
 15 22  1  0  0  0  0
 16 17  1  0  0  0  0
 16 36  1  1  0  0  0
 17 18  1  0  0  0  0
 17 37  1  0  0  0  0
 17 38  1  0  0  0  0
 18 19  1  0  0  0  0
 18 21  1  0  0  0  0
 18 25  1  6  0  0  0
 19 20  1  0  0  0  0
 19 23  1  0  0  0  0
 19 39  1  6  0  0  0
 20 40  1  0  0  0  0
 20 41  1  0  0  0  0
 21 22  1  0  0  0  0
 21 42  1  0  0  0  0
 21 43  1  0  0  0  0
 22 44  1  0  0  0  0
 22 45  1  0  0  0  0
 23 24  1  0  0  0  0
 23 46  1  0  0  0  0
 23 47  1  0  0  0  0
 24 48  1  0  0  0  0
 24 49  1  0  0  0  0
 24 50  1  0  0  0  0
M  END
$$$$
