Title Card Required
 OpenBabel03192317453D

 45 48  0  0  1  0  0  0  0  0999 V2000
   -3.3212   -2.1631   -0.9114 N   0  0  0  0  0  0  0  0  0  0  0  0
   -2.4227   -2.9834   -0.4345 C   0  0  0  0  0  0  0  0  0  0  0  0
   -1.3214   -2.5722    0.3569 C   0  0  0  0  0  0  0  0  0  0  0  0
   -1.1480   -1.2407    0.6543 C   0  0  0  0  0  0  0  0  0  0  0  0
   -2.1175   -0.3116    0.1603 C   0  0  0  0  0  0  0  0  0  0  0  0
   -2.0858    1.0813    0.4213 C   0  0  0  0  0  0  0  0  0  0  0  0
   -3.0641    1.9136   -0.0729 C   0  0  0  0  0  0  0  0  0  0  0  0
   -4.1232    1.3883   -0.8587 C   0  0  0  0  0  0  0  0  0  0  0  0
   -4.1790    0.0451   -1.1228 C   0  0  0  0  0  0  0  0  0  0  0  0
   -3.1882   -0.8428   -0.6214 C   0  0  0  0  0  0  0  0  0  0  0  0
   -2.9850    3.2376    0.2050 O   0  0  0  0  0  0  0  0  0  0  0  0
    0.0604   -0.8228    1.4666 C   0  0  2  0  0  0  0  0  0  0  0  0
    1.0150    0.7570   -0.2336 N   0  0  2  0  0  0  0  0  0  0  0  0
    1.2428   -0.4566    0.5470 C   0  0  1  0  0  0  0  0  0  0  0  0
    2.6000   -0.3600    1.2906 C   0  0  0  0  0  0  0  0  0  0  0  0
    3.4387    0.7193    0.5857 C   0  0  1  0  0  0  0  0  0  0  0  0
    3.3981    0.5193   -0.9480 C   0  0  2  0  0  0  0  0  0  0  0  0
    1.9098    0.7378   -1.3859 C   0  0  0  0  0  0  0  0  0  0  0  0
    2.7997    2.0789    0.8890 C   0  0  0  0  0  0  0  0  0  0  0  0
    1.2887    1.9543    0.5637 C   0  0  0  0  0  0  0  0  0  0  0  0
    3.9407   -0.8149   -1.3756 C   0  0  0  0  0  0  0  0  0  0  0  0
    5.0725   -0.9905   -2.0566 C   0  0  0  0  0  0  0  0  0  0  0  0
    0.4281   -1.9157    2.2780 O   0  0  0  0  0  0  0  0  0  0  0  0
    4.4813    0.6857    0.9321 H   0  0  0  0  0  0  0  0  0  0  0  0
   -2.5478   -4.0462   -0.6681 H   0  0  0  0  0  0  0  0  0  0  0  0
   -0.6168   -3.3073    0.7448 H   0  0  0  0  0  0  0  0  0  0  0  0
   -1.2861    1.5317    1.0032 H   0  0  0  0  0  0  0  0  0  0  0  0
   -4.8901    2.0638   -1.2472 H   0  0  0  0  0  0  0  0  0  0  0  0
   -4.9809   -0.3907   -1.7192 H   0  0  0  0  0  0  0  0  0  0  0  0
   -3.7391    3.6952   -0.1811 H   0  0  0  0  0  0  0  0  0  0  0  0
   -0.2066    0.0473    2.0949 H   0  0  0  0  0  0  0  0  0  0  0  0
    1.3049   -1.2866   -0.1754 H   0  0  0  0  0  0  0  0  0  0  0  0
    2.4582   -0.0518    2.3437 H   0  0  0  0  0  0  0  0  0  0  0  0
    3.1135   -1.3321    1.3031 H   0  0  0  0  0  0  0  0  0  0  0  0
    4.0327    1.2988   -1.3991 H   0  0  0  0  0  0  0  0  0  0  0  0
    1.8010    1.6929   -1.9204 H   0  0  0  0  0  0  0  0  0  0  0  0
    1.5880   -0.0578   -2.0748 H   0  0  0  0  0  0  0  0  0  0  0  0
    2.9541    2.3516    1.9438 H   0  0  0  0  0  0  0  0  0  0  0  0
    3.2778    2.8607    0.2791 H   0  0  0  0  0  0  0  0  0  0  0  0
    0.7068    1.8972    1.4950 H   0  0  0  0  0  0  0  0  0  0  0  0
    0.9131    2.8307    0.0152 H   0  0  0  0  0  0  0  0  0  0  0  0
    3.3457   -1.6968   -1.1055 H   0  0  0  0  0  0  0  0  0  0  0  0
    5.4194   -1.9849   -2.3434 H   0  0  0  0  0  0  0  0  0  0  0  0
    5.6898   -0.1379   -2.3541 H   0  0  0  0  0  0  0  0  0  0  0  0
    1.1703   -1.6488    2.8296 H   0  0  0  0  0  0  0  0  0  0  0  0
  1  2  2  0  0  0  0
  1 10  1  0  0  0  0
  2  3  1  0  0  0  0
  2 25  1  0  0  0  0
  3  4  2  0  0  0  0
  3 26  1  0  0  0  0
  4  5  1  0  0  0  0
  4 12  1  0  0  0  0
  5  6  2  0  0  0  0
  5 10  1  0  0  0  0
  6  7  1  0  0  0  0
  6 27  1  0  0  0  0
  7  8  2  0  0  0  0
  7 11  1  0  0  0  0
  8  9  1  0  0  0  0
  8 28  1  0  0  0  0
  9 10  2  0  0  0  0
  9 29  1  0  0  0  0
 11 30  1  0  0  0  0
 12 14  1  0  0  0  0
 12 23  1  0  0  0  0
 12 31  1  1  0  0  0
 13 14  1  0  0  0  0
 13 18  1  6  0  0  0
 13 20  1  0  0  0  0
 14 15  1  0  0  0  0
 14 32  1  6  0  0  0
 15 16  1  0  0  0  0
 15 33  1  0  0  0  0
 15 34  1  0  0  0  0
 16 17  1  0  0  0  0
 16 19  1  0  0  0  0
 16 24  1  1  0  0  0
 17 18  1  0  0  0  0
 17 21  1  0  0  0  0
 17 35  1  6  0  0  0
 18 36  1  0  0  0  0
 18 37  1  0  0  0  0
 19 20  1  0  0  0  0
 19 38  1  0  0  0  0
 19 39  1  0  0  0  0
 20 40  1  0  0  0  0
 20 41  1  0  0  0  0
 21 22  2  0  0  0  0
 21 42  1  0  0  0  0
 22 43  1  0  0  0  0
 22 44  1  0  0  0  0
 23 45  1  0  0  0  0
M  END
$$$$
