Title Card Required
 OpenBabel03192317563D

 24 24  0  0  1  0  0  0  0  0999 V2000
   -2.4112   -0.9165    0.0726 C   0  0  0  0  0  0  0  0  0  0  0  0
   -1.8667    1.1616   -1.0380 N   0  0  0  0  0  0  0  0  0  0  0  0
   -2.0443    0.5594    0.2793 C   0  0  2  0  0  0  0  0  0  0  0  0
   -0.8521    0.7775    1.2398 C   0  0  0  0  0  0  0  0  0  0  0  0
    0.4865    0.3660    0.6784 C   0  0  0  0  0  0  0  0  0  0  0  0
    1.3022    1.3069    0.0393 C   0  0  0  0  0  0  0  0  0  0  0  0
    2.5239    0.9372   -0.5248 C   0  0  0  0  0  0  0  0  0  0  0  0
    2.9501   -0.3866   -0.4511 C   0  0  0  0  0  0  0  0  0  0  0  0
    2.1477   -1.3342    0.1863 C   0  0  0  0  0  0  0  0  0  0  0  0
    0.9276   -0.9613    0.7420 C   0  0  0  0  0  0  0  0  0  0  0  0
   -1.5927   -1.5398   -0.8785 O   0  0  0  0  0  0  0  0  0  0  0  0
   -2.3068   -1.4743    1.0163 H   0  0  0  0  0  0  0  0  0  0  0  0
   -3.4743   -0.9688   -0.2274 H   0  0  0  0  0  0  0  0  0  0  0  0
   -2.0013    2.1691   -1.0021 H   0  0  0  0  0  0  0  0  0  0  0  0
   -0.9063    1.0124   -1.3507 H   0  0  0  0  0  0  0  0  0  0  0  0
   -2.9197    1.0360    0.7497 H   0  0  0  0  0  0  0  0  0  0  0  0
   -0.8140    1.8490    1.4940 H   0  0  0  0  0  0  0  0  0  0  0  0
   -1.0504    0.2350    2.1776 H   0  0  0  0  0  0  0  0  0  0  0  0
    0.9782    2.3503   -0.0070 H   0  0  0  0  0  0  0  0  0  0  0  0
    3.1460    1.6876   -1.0154 H   0  0  0  0  0  0  0  0  0  0  0  0
    3.9063   -0.6814   -0.8862 H   0  0  0  0  0  0  0  0  0  0  0  0
    2.4742   -2.3736    0.2465 H   0  0  0  0  0  0  0  0  0  0  0  0
    0.2971   -1.7133    1.2206 H   0  0  0  0  0  0  0  0  0  0  0  0
   -1.7019   -1.0314   -1.6928 H   0  0  0  0  0  0  0  0  0  0  0  0
  1  3  1  0  0  0  0
  1 11  1  0  0  0  0
  1 12  1  0  0  0  0
  1 13  1  0  0  0  0
  2  3  1  0  0  0  0
  2 14  1  0  0  0  0
  2 15  1  0  0  0  0
  3  4  1  0  0  0  0
  3 16  1  1  0  0  0
  4  5  1  0  0  0  0
  4 17  1  0  0  0  0
  4 18  1  0  0  0  0
  5  6  2  0  0  0  0
  5 10  1  0  0  0  0
  6  7  1  0  0  0  0
  6 19  1  0  0  0  0
  7  8  2  0  0  0  0
  7 20  1  0  0  0  0
  8  9  1  0  0  0  0
  8 21  1  0  0  0  0
  9 10  2  0  0  0  0
  9 22  1  0  0  0  0
 10 23  1  0  0  0  0
 11 24  1  0  0  0  0
M  END
$$$$
