Title Card Required
 OpenBabel03192317453D

101108  0  0  0  0  0  0  0  0999 V2000
    0.0011   -2.6822    0.0037 C   0  0  0  0  0  0  0  0  0  0  0  0
    1.0460   -3.5452   -0.7837 C   0  0  0  0  0  0  0  0  0  0  0  0
    0.9795   -3.1577   -2.2764 C   0  0  0  0  0  0  0  0  0  0  0  0
   -0.0746   -2.0872   -2.3461 C   0  0  0  0  0  0  0  0  0  0  0  0
   -0.4878   -1.3880   -3.4764 C   0  0  0  0  0  0  0  0  0  0  0  0
   -1.4930   -0.4266   -3.3571 C   0  0  0  0  0  0  0  0  0  0  0  0
   -2.0862   -0.1893   -2.1189 C   0  0  0  0  0  0  0  0  0  0  0  0
   -1.6842   -0.8918   -0.9726 C   0  0  0  0  0  0  0  0  0  0  0  0
   -0.6474   -1.8303   -1.0932 C   0  0  0  0  0  0  0  0  0  0  0  0
   -1.0419   -3.5457    0.7931 C   0  0  0  0  0  0  0  0  0  0  0  0
   -0.9768   -3.1541    2.2848 C   0  0  0  0  0  0  0  0  0  0  0  0
    0.0758   -2.0820    2.3523 C   0  0  0  0  0  0  0  0  0  0  0  0
    0.4883   -1.3798    3.4810 C   0  0  0  0  0  0  0  0  0  0  0  0
    1.4919   -0.4170    3.3593 C   0  0  0  0  0  0  0  0  0  0  0  0
    2.0845   -0.1815    2.1205 C   0  0  0  0  0  0  0  0  0  0  0  0
    1.6835   -0.8872    0.9759 C   0  0  0  0  0  0  0  0  0  0  0  0
    0.6481   -1.8270    1.0987 C   0  0  0  0  0  0  0  0  0  0  0  0
    2.5133   -0.5763   -0.6539 P   0  0  0  0  0  0  0  0  0  0  0  0
    2.3026    1.2525   -0.7758 C   0  0  0  0  0  0  0  0  0  0  0  0
    3.2284    2.2193   -0.3607 C   0  0  0  0  0  0  0  0  0  0  0  0
    2.9484    3.5801   -0.5074 C   0  0  0  0  0  0  0  0  0  0  0  0
    1.7229    3.9608   -1.0707 C   0  0  0  0  0  0  0  0  0  0  0  0
    0.7832    3.0171   -1.4868 C   0  0  0  0  0  0  0  0  0  0  0  0
    1.0935    1.6607   -1.3416 C   0  0  0  0  0  0  0  0  0  0  0  0
   -0.5340    3.4166   -2.0954 C   0  0  0  0  0  0  0  0  0  0  0  0
    3.9196    4.6265   -0.0252 C   0  0  0  0  0  0  0  0  0  0  0  0
    4.2907   -0.7750   -0.2165 C   0  0  0  0  0  0  0  0  0  0  0  0
    5.2443   -0.2372   -1.0986 C   0  0  0  0  0  0  0  0  0  0  0  0
    6.6076   -0.4465   -0.9057 C   0  0  0  0  0  0  0  0  0  0  0  0
    7.0179   -1.2357    0.1790 C   0  0  0  0  0  0  0  0  0  0  0  0
    6.0966   -1.8032    1.0561 C   0  0  0  0  0  0  0  0  0  0  0  0
    4.7297   -1.5610    0.8497 C   0  0  0  0  0  0  0  0  0  0  0  0
    6.5406   -2.6635    2.2109 C   0  0  0  0  0  0  0  0  0  0  0  0
    7.6301    0.1593   -1.8320 C   0  0  0  0  0  0  0  0  0  0  0  0
   -2.5149   -0.5788    0.6564 P   0  0  0  0  0  0  0  0  0  0  0  0
   -2.3035    1.2505    0.7756 C   0  0  0  0  0  0  0  0  0  0  0  0
   -3.2271    2.2175    0.3561 C   0  0  0  0  0  0  0  0  0  0  0  0
   -2.9462    3.5783    0.5007 C   0  0  0  0  0  0  0  0  0  0  0  0
   -1.7219    3.9590    1.0664 C   0  0  0  0  0  0  0  0  0  0  0  0
   -0.7841    3.0153    1.4865 C   0  0  0  0  0  0  0  0  0  0  0  0
   -1.0955    1.6588    1.3435 C   0  0  0  0  0  0  0  0  0  0  0  0
    0.5327    3.4146    2.0960 C   0  0  0  0  0  0  0  0  0  0  0  0
   -3.9151    4.6246    0.0136 C   0  0  0  0  0  0  0  0  0  0  0  0
   -4.2926   -0.7774    0.2185 C   0  0  0  0  0  0  0  0  0  0  0  0
   -4.7302   -1.5711   -0.8496 C   0  0  0  0  0  0  0  0  0  0  0  0
   -6.0917   -1.8092   -1.0603 C   0  0  0  0  0  0  0  0  0  0  0  0
   -7.0192   -1.2289   -0.1893 C   0  0  0  0  0  0  0  0  0  0  0  0
   -6.6135   -0.4390    0.8892 C   0  0  0  0  0  0  0  0  0  0  0  0
   -5.2451   -0.2344    1.0895 C   0  0  0  0  0  0  0  0  0  0  0  0
   -7.6186    0.1921    1.8181 C   0  0  0  0  0  0  0  0  0  0  0  0
   -6.5546   -2.6893   -2.1926 C   0  0  0  0  0  0  0  0  0  0  0  0
    0.8225   -4.6117   -0.6471 H   0  0  0  0  0  0  0  0  0  0  0  0
    2.0554   -3.3836   -0.3793 H   0  0  0  0  0  0  0  0  0  0  0  0
    0.7039   -4.0136   -2.9120 H   0  0  0  0  0  0  0  0  0  0  0  0
    1.9428   -2.7716   -2.6403 H   0  0  0  0  0  0  0  0  0  0  0  0
   -0.0249   -1.5876   -4.4452 H   0  0  0  0  0  0  0  0  0  0  0  0
   -1.8188    0.1377   -4.2327 H   0  0  0  0  0  0  0  0  0  0  0  0
   -2.8834    0.5541   -2.0326 H   0  0  0  0  0  0  0  0  0  0  0  0
   -2.0516   -3.3878    0.3878 H   0  0  0  0  0  0  0  0  0  0  0  0
   -0.8156   -4.6120    0.6594 H   0  0  0  0  0  0  0  0  0  0  0  0
   -1.9408   -2.7680    2.6470 H   0  0  0  0  0  0  0  0  0  0  0  0
   -0.7007   -4.0079    2.9229 H   0  0  0  0  0  0  0  0  0  0  0  0
    0.0259   -1.5780    4.4503 H   0  0  0  0  0  0  0  0  0  0  0  0
    1.8167    0.1499    4.2336 H   0  0  0  0  0  0  0  0  0  0  0  0
    2.8802    0.5634    2.0323 H   0  0  0  0  0  0  0  0  0  0  0  0
    4.1809    1.9116    0.0789 H   0  0  0  0  0  0  0  0  0  0  0  0
    1.4968    5.0255   -1.1837 H   0  0  0  0  0  0  0  0  0  0  0  0
    0.3716    0.9084   -1.6766 H   0  0  0  0  0  0  0  0  0  0  0  0
   -0.5347    3.2296   -3.1808 H   0  0  0  0  0  0  0  0  0  0  0  0
   -1.3506    2.8269   -1.6522 H   0  0  0  0  0  0  0  0  0  0  0  0
   -0.7475    4.4813   -1.9285 H   0  0  0  0  0  0  0  0  0  0  0  0
    4.0011    5.4553   -0.7425 H   0  0  0  0  0  0  0  0  0  0  0  0
    3.5856    5.0536    0.9339 H   0  0  0  0  0  0  0  0  0  0  0  0
    4.9206    4.2022    0.1282 H   0  0  0  0  0  0  0  0  0  0  0  0
    4.9136    0.3663   -1.9495 H   0  0  0  0  0  0  0  0  0  0  0  0
    8.0858   -1.4123    0.3363 H   0  0  0  0  0  0  0  0  0  0  0  0
    4.0049   -1.9959    1.5430 H   0  0  0  0  0  0  0  0  0  0  0  0
    6.1522   -2.2741    3.1634 H   0  0  0  0  0  0  0  0  0  0  0  0
    6.1630   -3.6911    2.1015 H   0  0  0  0  0  0  0  0  0  0  0  0
    7.6352   -2.7086    2.2791 H   0  0  0  0  0  0  0  0  0  0  0  0
    8.2445    0.9037   -1.3034 H   0  0  0  0  0  0  0  0  0  0  0  0
    8.3129   -0.6087   -2.2236 H   0  0  0  0  0  0  0  0  0  0  0  0
    7.1506    0.6591   -2.6836 H   0  0  0  0  0  0  0  0  0  0  0  0
   -4.1787    1.9100   -0.0858 H   0  0  0  0  0  0  0  0  0  0  0  0
   -1.4949    5.0237    1.1778 H   0  0  0  0  0  0  0  0  0  0  0  0
   -0.3751    0.9066    1.6817 H   0  0  0  0  0  0  0  0  0  0  0  0
    0.5376    3.2148    3.1791 H   0  0  0  0  0  0  0  0  0  0  0  0
    1.3510    2.8343    1.6435 H   0  0  0  0  0  0  0  0  0  0  0  0
    0.7401    4.4823    1.9409 H   0  0  0  0  0  0  0  0  0  0  0  0
   -3.9982    5.4547    0.7292 H   0  0  0  0  0  0  0  0  0  0  0  0
   -3.5777    5.0498   -0.9452 H   0  0  0  0  0  0  0  0  0  0  0  0
   -4.9160    4.2009   -0.1423 H   0  0  0  0  0  0  0  0  0  0  0  0
   -4.0024   -2.0099   -1.5365 H   0  0  0  0  0  0  0  0  0  0  0  0
   -8.0868   -1.4000   -0.3544 H   0  0  0  0  0  0  0  0  0  0  0  0
   -4.9179    0.3737    1.9390 H   0  0  0  0  0  0  0  0  0  0  0  0
   -7.3805   -0.0311    2.8681 H   0  0  0  0  0  0  0  0  0  0  0  0
   -7.6196    1.2872    1.7094 H   0  0  0  0  0  0  0  0  0  0  0  0
   -8.6348   -0.1689    1.6127 H   0  0  0  0  0  0  0  0  0  0  0  0
   -6.8075   -3.6962   -1.8255 H   0  0  0  0  0  0  0  0  0  0  0  0
   -7.4545   -2.2793   -2.6719 H   0  0  0  0  0  0  0  0  0  0  0  0
   -5.7745   -2.7990   -2.9574 H   0  0  0  0  0  0  0  0  0  0  0  0
  1  2  1  0  0  0  0
  1  9  1  0  0  0  0
  1 10  1  0  0  0  0
  1 17  1  0  0  0  0
  2  3  1  0  0  0  0
  2 52  1  0  0  0  0
  2 53  1  0  0  0  0
  3  4  1  0  0  0  0
  3 54  1  0  0  0  0
  3 55  1  0  0  0  0
  4  5  2  0  0  0  0
  4  9  1  0  0  0  0
  5  6  1  0  0  0  0
  5 56  1  0  0  0  0
  6  7  2  0  0  0  0
  6 57  1  0  0  0  0
  7  8  1  0  0  0  0
  7 58  1  0  0  0  0
  8  9  2  0  0  0  0
  8 35  1  0  0  0  0
 10 11  1  0  0  0  0
 10 59  1  0  0  0  0
 10 60  1  0  0  0  0
 11 12  1  0  0  0  0
 11 61  1  0  0  0  0
 11 62  1  0  0  0  0
 12 13  2  0  0  0  0
 12 17  1  0  0  0  0
 13 14  1  0  0  0  0
 13 63  1  0  0  0  0
 14 15  2  0  0  0  0
 14 64  1  0  0  0  0
 15 16  1  0  0  0  0
 15 65  1  0  0  0  0
 16 17  2  0  0  0  0
 16 18  1  0  0  0  0
 18 19  1  0  0  0  0
 18 27  1  0  0  0  0
 19 20  2  0  0  0  0
 19 24  1  0  0  0  0
 20 21  1  0  0  0  0
 20 66  1  0  0  0  0
 21 22  2  0  0  0  0
 21 26  1  0  0  0  0
 22 23  1  0  0  0  0
 22 67  1  0  0  0  0
 23 24  2  0  0  0  0
 23 25  1  0  0  0  0
 24 68  1  0  0  0  0
 25 69  1  0  0  0  0
 25 70  1  0  0  0  0
 25 71  1  0  0  0  0
 26 72  1  0  0  0  0
 26 73  1  0  0  0  0
 26 74  1  0  0  0  0
 27 28  2  0  0  0  0
 27 32  1  0  0  0  0
 28 29  1  0  0  0  0
 28 75  1  0  0  0  0
 29 30  2  0  0  0  0
 29 34  1  0  0  0  0
 30 31  1  0  0  0  0
 30 76  1  0  0  0  0
 31 32  2  0  0  0  0
 31 33  1  0  0  0  0
 32 77  1  0  0  0  0
 33 78  1  0  0  0  0
 33 79  1  0  0  0  0
 33 80  1  0  0  0  0
 34 81  1  0  0  0  0
 34 82  1  0  0  0  0
 34 83  1  0  0  0  0
 35 36  1  0  0  0  0
 35 44  1  0  0  0  0
 36 37  2  0  0  0  0
 36 41  1  0  0  0  0
 37 38  1  0  0  0  0
 37 84  1  0  0  0  0
 38 39  2  0  0  0  0
 38 43  1  0  0  0  0
 39 40  1  0  0  0  0
 39 85  1  0  0  0  0
 40 41  2  0  0  0  0
 40 42  1  0  0  0  0
 41 86  1  0  0  0  0
 42 87  1  0  0  0  0
 42 88  1  0  0  0  0
 42 89  1  0  0  0  0
 43 90  1  0  0  0  0
 43 91  1  0  0  0  0
 43 92  1  0  0  0  0
 44 45  2  0  0  0  0
 44 49  1  0  0  0  0
 45 46  1  0  0  0  0
 45 93  1  0  0  0  0
 46 47  2  0  0  0  0
 46 51  1  0  0  0  0
 47 48  1  0  0  0  0
 47 94  1  0  0  0  0
 48 49  2  0  0  0  0
 48 50  1  0  0  0  0
 49 95  1  0  0  0  0
 50 96  1  0  0  0  0
 50 97  1  0  0  0  0
 50 98  1  0  0  0  0
 51 99  1  0  0  0  0
 51100  1  0  0  0  0
 51101  1  0  0  0  0
M  END
$$$$
