Title Card Required
 OpenBabel03192317523D

 31 32  0  0  1  0  0  0  0  0999 V2000
    2.3846    0.2748   -1.2639 C   0  0  0  0  0  0  0  0  0  0  0  0
    3.7579    0.2726   -1.0170 C   0  0  0  0  0  0  0  0  0  0  0  0
    4.2508   -0.2493    0.1769 C   0  0  0  0  0  0  0  0  0  0  0  0
    3.3632   -0.7669    1.1220 C   0  0  0  0  0  0  0  0  0  0  0  0
    1.9933   -0.7671    0.8720 C   0  0  0  0  0  0  0  0  0  0  0  0
    1.4906   -0.2498   -0.3276 C   0  0  0  0  0  0  0  0  0  0  0  0
    0.0059   -0.2945   -0.6160 C   0  0  0  0  0  0  0  0  0  0  0  0
   -0.7936   -0.0033    0.5664 N   0  0  0  0  0  0  0  0  0  0  0  0
   -2.2370   -0.1429    0.3702 C   0  0  1  0  0  0  0  0  0  0  0  0
   -2.7019    1.1598   -0.3205 C   0  0  0  0  0  0  0  0  0  0  0  0
   -1.6609    2.2060    0.1328 C   0  0  0  0  0  0  0  0  0  0  0  0
   -0.6655    1.3892    0.9959 C   0  0  0  0  0  0  0  0  0  0  0  0
   -2.6832   -1.4200   -0.3234 C   0  0  0  0  0  0  0  0  0  0  0  0
   -4.0846   -1.5231   -0.3340 O   0  0  0  0  0  0  0  0  0  0  0  0
    2.0003    0.6910   -2.1985 H   0  0  0  0  0  0  0  0  0  0  0  0
    4.4440    0.6853   -1.7585 H   0  0  0  0  0  0  0  0  0  0  0  0
    5.3240   -0.2487    0.3741 H   0  0  0  0  0  0  0  0  0  0  0  0
    3.7433   -1.1724    2.0614 H   0  0  0  0  0  0  0  0  0  0  0  0
    1.2872   -1.1563    1.6077 H   0  0  0  0  0  0  0  0  0  0  0  0
   -0.2137    0.3798   -1.4719 H   0  0  0  0  0  0  0  0  0  0  0  0
   -0.2386   -1.3142   -0.9526 H   0  0  0  0  0  0  0  0  0  0  0  0
   -2.6764   -0.1657    1.3867 H   0  0  0  0  0  0  0  0  0  0  0  0
   -2.6885    1.0263   -1.4134 H   0  0  0  0  0  0  0  0  0  0  0  0
   -3.7326    1.4185   -0.0469 H   0  0  0  0  0  0  0  0  0  0  0  0
   -1.1542    2.6593   -0.7308 H   0  0  0  0  0  0  0  0  0  0  0  0
   -2.1087    3.0278    0.7074 H   0  0  0  0  0  0  0  0  0  0  0  0
    0.3756    1.7284    0.9149 H   0  0  0  0  0  0  0  0  0  0  0  0
   -0.9531    1.4487    2.0575 H   0  0  0  0  0  0  0  0  0  0  0  0
   -2.3730   -1.4136   -1.3790 H   0  0  0  0  0  0  0  0  0  0  0  0
   -2.2008   -2.2902    0.1613 H   0  0  0  0  0  0  0  0  0  0  0  0
   -4.3900   -1.5678    0.5785 H   0  0  0  0  0  0  0  0  0  0  0  0
  1  2  2  0  0  0  0
  1  6  1  0  0  0  0
  1 15  1  0  0  0  0
  2  3  1  0  0  0  0
  2 16  1  0  0  0  0
  3  4  2  0  0  0  0
  3 17  1  0  0  0  0
  4  5  1  0  0  0  0
  4 18  1  0  0  0  0
  5  6  2  0  0  0  0
  5 19  1  0  0  0  0
  6  7  1  0  0  0  0
  7  8  1  0  0  0  0
  7 20  1  0  0  0  0
  7 21  1  0  0  0  0
  8  9  1  0  0  0  0
  8 12  1  0  0  0  0
  9 10  1  0  0  0  0
  9 13  1  0  0  0  0
  9 22  1  1  0  0  0
 10 11  1  0  0  0  0
 10 23  1  0  0  0  0
 10 24  1  0  0  0  0
 11 12  1  0  0  0  0
 11 25  1  0  0  0  0
 11 26  1  0  0  0  0
 12 27  1  0  0  0  0
 12 28  1  0  0  0  0
 13 14  1  0  0  0  0
 13 29  1  0  0  0  0
 13 30  1  0  0  0  0
 14 31  1  0  0  0  0
M  END
$$$$
