Title Card Required
 OpenBabel03192317563D

 32 34  0  0  1  0  0  0  0  0999 V2000
   -2.9044   -0.5207    0.1004 C   0  0  0  0  0  0  0  0  0  0  0  0
   -2.5634    0.8388   -0.0894 C   0  0  0  0  0  0  0  0  0  0  0  0
   -3.5897    1.8032   -0.1190 C   0  0  0  0  0  0  0  0  0  0  0  0
   -4.9046    1.4033    0.0374 C   0  0  0  0  0  0  0  0  0  0  0  0
   -5.2263    0.0446    0.2249 C   0  0  0  0  0  0  0  0  0  0  0  0
   -4.2368   -0.9247    0.2580 C   0  0  0  0  0  0  0  0  0  0  0  0
   -1.4981   -1.5436    0.1063 S   0  0  0  0  0  0  0  0  0  0  0  0
   -0.4658   -0.1617   -0.1454 C   0  0  0  0  0  0  0  0  0  0  0  0
   -1.1454    1.0155   -0.2294 C   0  0  0  0  0  0  0  0  0  0  0  0
    0.9840   -0.3267   -0.2420 C   0  0  0  0  0  0  0  0  0  0  0  0
    1.8323    0.6068   -0.3714 N   0  0  0  0  0  0  0  0  0  0  0  0
    3.1471   -0.0269   -0.4673 C   0  0  2  0  0  0  0  0  0  0  0  0
    2.8577   -1.5195   -0.1719 C   0  0  0  0  0  0  0  0  0  0  0  0
    1.4312   -1.6042   -0.2008 O   0  0  0  0  0  0  0  0  0  0  0  0
    4.1741    0.6047    0.4756 C   0  0  0  0  0  0  0  0  0  0  0  0
    5.5230   -0.0994    0.3435 C   0  0  0  0  0  0  0  0  0  0  0  0
    4.3019    2.1016    0.2135 C   0  0  0  0  0  0  0  0  0  0  0  0
   -3.3396    2.8553   -0.2652 H   0  0  0  0  0  0  0  0  0  0  0  0
   -5.7038    2.1453    0.0150 H   0  0  0  0  0  0  0  0  0  0  0  0
   -6.2698   -0.2495    0.3461 H   0  0  0  0  0  0  0  0  0  0  0  0
   -4.4861   -1.9766    0.4036 H   0  0  0  0  0  0  0  0  0  0  0  0
   -0.6402    1.9680   -0.3864 H   0  0  0  0  0  0  0  0  0  0  0  0
    3.5162    0.1069   -1.5018 H   0  0  0  0  0  0  0  0  0  0  0  0
    3.2695   -2.2161   -0.9123 H   0  0  0  0  0  0  0  0  0  0  0  0
    3.2034   -1.8136    0.8329 H   0  0  0  0  0  0  0  0  0  0  0  0
    3.7921    0.4585    1.5020 H   0  0  0  0  0  0  0  0  0  0  0  0
    5.9178    0.0158   -0.6789 H   0  0  0  0  0  0  0  0  0  0  0  0
    6.2588    0.3330    1.0364 H   0  0  0  0  0  0  0  0  0  0  0  0
    5.4553   -1.1762    0.5607 H   0  0  0  0  0  0  0  0  0  0  0  0
    3.3263    2.5952    0.3043 H   0  0  0  0  0  0  0  0  0  0  0  0
    5.0051    2.5637    0.9214 H   0  0  0  0  0  0  0  0  0  0  0  0
    4.6812    2.2810   -0.8055 H   0  0  0  0  0  0  0  0  0  0  0  0
  1  2  2  0  0  0  0
  1  6  1  0  0  0  0
  1  7  1  0  0  0  0
  2  3  1  0  0  0  0
  2  9  1  0  0  0  0
  3  4  2  0  0  0  0
  3 18  1  0  0  0  0
  4  5  1  0  0  0  0
  4 19  1  0  0  0  0
  5  6  2  0  0  0  0
  5 20  1  0  0  0  0
  6 21  1  0  0  0  0
  7  8  1  0  0  0  0
  8  9  2  0  0  0  0
  8 10  1  0  0  0  0
  9 22  1  0  0  0  0
 10 11  2  0  0  0  0
 10 14  1  0  0  0  0
 11 12  1  0  0  0  0
 12 13  1  0  0  0  0
 12 15  1  0  0  0  0
 12 23  1  6  0  0  0
 13 14  1  0  0  0  0
 13 24  1  0  0  0  0
 13 25  1  0  0  0  0
 15 16  1  0  0  0  0
 15 17  1  0  0  0  0
 15 26  1  0  0  0  0
 16 27  1  0  0  0  0
 16 28  1  0  0  0  0
 16 29  1  0  0  0  0
 17 30  1  0  0  0  0
 17 31  1  0  0  0  0
 17 32  1  0  0  0  0
M  END
$$$$
