Title Card Required
 OpenBabel03192317523D

 42 45  0  0  0  0  0  0  0  0999 V2000
    1.3995   -2.6733   -1.8029 C   0  0  0  0  0  0  0  0  0  0  0  0
    0.3757   -1.6989   -1.7478 C   0  0  0  0  0  0  0  0  0  0  0  0
    0.5471   -0.5068   -1.0738 C   0  0  0  0  0  0  0  0  0  0  0  0
    1.7862   -0.2514   -0.3986 C   0  0  0  0  0  0  0  0  0  0  0  0
    2.8186   -1.2343   -0.4645 C   0  0  0  0  0  0  0  0  0  0  0  0
    2.5992   -2.4418   -1.1776 C   0  0  0  0  0  0  0  0  0  0  0  0
    2.0216    0.9334    0.3463 C   0  0  0  0  0  0  0  0  0  0  0  0
    3.2237    1.1408    0.9814 C   0  0  0  0  0  0  0  0  0  0  0  0
    4.2740    0.1741    0.9095 C   0  0  0  0  0  0  0  0  0  0  0  0
    4.0486   -0.9800    0.1990 C   0  0  0  0  0  0  0  0  0  0  0  0
   -0.5471    0.5067   -1.0738 C   0  0  0  0  0  0  0  0  0  0  0  0
   -0.3757    1.6988   -1.7478 C   0  0  0  0  0  0  0  0  0  0  0  0
   -1.3995    2.6733   -1.8029 C   0  0  0  0  0  0  0  0  0  0  0  0
   -2.5992    2.4418   -1.1776 C   0  0  0  0  0  0  0  0  0  0  0  0
   -2.8186    1.2343   -0.4645 C   0  0  0  0  0  0  0  0  0  0  0  0
   -1.7862    0.2514   -0.3986 C   0  0  0  0  0  0  0  0  0  0  0  0
   -4.0486    0.9800    0.1990 C   0  0  0  0  0  0  0  0  0  0  0  0
   -4.2740   -0.1741    0.9096 C   0  0  0  0  0  0  0  0  0  0  0  0
   -3.2238   -1.1408    0.9814 C   0  0  0  0  0  0  0  0  0  0  0  0
   -2.0216   -0.9334    0.3462 C   0  0  0  0  0  0  0  0  0  0  0  0
   -5.5755   -0.4498    1.6129 C   0  0  0  0  0  0  0  0  0  0  0  0
    5.5755    0.4499    1.6128 C   0  0  0  0  0  0  0  0  0  0  0  0
   -3.3913   -2.2887    1.6818 O   0  0  0  0  0  0  0  0  0  0  0  0
    3.3912    2.2887    1.6818 O   0  0  0  0  0  0  0  0  0  0  0  0
    1.2305   -3.6025   -2.3486 H   0  0  0  0  0  0  0  0  0  0  0  0
   -0.5742   -1.8835   -2.2542 H   0  0  0  0  0  0  0  0  0  0  0  0
    3.4014   -3.1819   -1.2168 H   0  0  0  0  0  0  0  0  0  0  0  0
    1.2500    1.6975    0.4363 H   0  0  0  0  0  0  0  0  0  0  0  0
    4.8378   -1.7339    0.1375 H   0  0  0  0  0  0  0  0  0  0  0  0
    0.5742    1.8835   -2.2542 H   0  0  0  0  0  0  0  0  0  0  0  0
   -1.2305    3.6024   -2.3487 H   0  0  0  0  0  0  0  0  0  0  0  0
   -3.4013    3.1819   -1.2168 H   0  0  0  0  0  0  0  0  0  0  0  0
   -4.8377    1.7340    0.1375 H   0  0  0  0  0  0  0  0  0  0  0  0
   -1.2500   -1.6975    0.4362 H   0  0  0  0  0  0  0  0  0  0  0  0
   -5.4309   -0.5703    2.6997 H   0  0  0  0  0  0  0  0  0  0  0  0
   -6.2838    0.3743    1.4656 H   0  0  0  0  0  0  0  0  0  0  0  0
   -6.0526   -1.3683    1.2323 H   0  0  0  0  0  0  0  0  0  0  0  0
    5.4311    0.5698    2.6997 H   0  0  0  0  0  0  0  0  0  0  0  0
    6.2840   -0.3740    1.4650 H   0  0  0  0  0  0  0  0  0  0  0  0
    6.0523    1.3687    1.2326 H   0  0  0  0  0  0  0  0  0  0  0  0
   -4.2624   -2.3024    2.0906 H   0  0  0  0  0  0  0  0  0  0  0  0
    4.2622    2.3023    2.0909 H   0  0  0  0  0  0  0  0  0  0  0  0
  1  2  2  0  0  0  0
  1  6  1  0  0  0  0
  1 25  1  0  0  0  0
  2  3  1  0  0  0  0
  2 26  1  0  0  0  0
  3  4  2  0  0  0  0
  3 11  1  0  0  0  0
  4  5  1  0  0  0  0
  4  7  1  0  0  0  0
  5  6  2  0  0  0  0
  5 10  1  0  0  0  0
  6 27  1  0  0  0  0
  7  8  2  0  0  0  0
  7 28  1  0  0  0  0
  8  9  1  0  0  0  0
  8 24  1  0  0  0  0
  9 10  2  0  0  0  0
  9 22  1  0  0  0  0
 10 29  1  0  0  0  0
 11 12  2  0  0  0  0
 11 16  1  0  0  0  0
 12 13  1  0  0  0  0
 12 30  1  0  0  0  0
 13 14  2  0  0  0  0
 13 31  1  0  0  0  0
 14 15  1  0  0  0  0
 14 32  1  0  0  0  0
 15 16  2  0  0  0  0
 15 17  1  0  0  0  0
 16 20  1  0  0  0  0
 17 18  2  0  0  0  0
 17 33  1  0  0  0  0
 18 19  1  0  0  0  0
 18 21  1  0  0  0  0
 19 20  2  0  0  0  0
 19 23  1  0  0  0  0
 20 34  1  0  0  0  0
 21 35  1  0  0  0  0
 21 36  1  0  0  0  0
 21 37  1  0  0  0  0
 22 38  1  0  0  0  0
 22 39  1  0  0  0  0
 22 40  1  0  0  0  0
 23 41  1  0  0  0  0
 24 42  1  0  0  0  0
M  END
$$$$
