Title Card Required
 OpenBabel03192317473D

 67 71  0  0  1  0  0  0  0  0999 V2000
    2.7484    0.7493    0.6457 Fe  0  0  0  0  0  0  0  0  0  0  0  0
    1.3672    1.9126   -2.0518 C   0  0  0  0  0  0  0  0  0  0  0  0
    0.8863    3.1463   -1.2703 C   0  0  0  0  0  0  0  0  0  0  0  0
   -0.6594    3.0881   -1.3169 C   0  0  0  0  0  0  0  0  0  0  0  0
   -0.9863    1.8484   -2.1643 C   0  0  0  0  0  0  0  0  0  0  0  0
    0.2128    0.9022   -1.9556 C   0  0  0  0  0  0  0  0  0  0  0  0
    0.0932    0.1327   -0.6197 C   0  0  2  0  0  0  0  0  0  0  0  0
    1.3689   -0.5516   -0.2113 N   0  0  0  0  0  4  0  0  0  0  0  0
    1.9855   -1.3044   -1.3119 C   0  0  0  0  0  0  0  0  0  0  0  0
    1.1513   -1.4709    0.9213 C   0  0  0  0  0  0  0  0  0  0  0  0
   -1.1089   -0.8391   -0.7084 C   0  0  0  0  0  0  0  0  0  0  0  0
   -2.1233   -0.9671    0.8629 P   0  0  0  0  0  0  0  0  0  0  0  0
   -2.6893    0.7872    1.0113 C   0  0  0  0  0  0  0  0  0  0  0  0
   -3.6558   -1.7653    0.2251 C   0  0  0  0  0  0  0  0  0  0  0  0
   -3.7292   -2.4540   -0.9908 C   0  0  0  0  0  0  0  0  0  0  0  0
   -4.9082   -3.0980   -1.3739 C   0  0  0  0  0  0  0  0  0  0  0  0
   -6.0295   -3.0582   -0.5505 C   0  0  0  0  0  0  0  0  0  0  0  0
   -5.9671   -2.3760    0.6666 C   0  0  0  0  0  0  0  0  0  0  0  0
   -4.7898   -1.7441    1.0530 C   0  0  0  0  0  0  0  0  0  0  0  0
   -3.6557    1.3627    0.1749 C   0  0  0  0  0  0  0  0  0  0  0  0
   -4.0150    2.7001    0.3263 C   0  0  0  0  0  0  0  0  0  0  0  0
   -3.4178    3.4791    1.3198 C   0  0  0  0  0  0  0  0  0  0  0  0
   -2.4607    2.9163    2.1611 C   0  0  0  0  0  0  0  0  0  0  0  0
   -2.1025    1.5754    2.0092 C   0  0  0  0  0  0  0  0  0  0  0  0
    2.3379    1.5356   -1.6917 H   0  0  0  0  0  0  0  0  0  0  0  0
    1.2912    4.0742   -1.6966 H   0  0  0  0  0  0  0  0  0  0  0  0
   -1.1072    3.9971   -1.7414 H   0  0  0  0  0  0  0  0  0  0  0  0
   -1.0168    2.1172   -3.2314 H   0  0  0  0  0  0  0  0  0  0  0  0
   -0.0909    0.8725    0.1798 H   0  0  0  0  0  0  0  0  0  0  0  0
    2.8647   -1.8370   -0.9259 H   0  0  0  0  0  0  0  0  0  0  0  0
    1.2859   -2.0482   -1.7343 H   0  0  0  0  0  0  0  0  0  0  0  0
    2.3153   -0.6289   -2.1097 H   0  0  0  0  0  0  0  0  0  0  0  0
    2.1254   -1.8334    1.2779 H   0  0  0  0  0  0  0  0  0  0  0  0
    0.6535   -0.9442    1.7453 H   0  0  0  0  0  0  0  0  0  0  0  0
    0.5378   -2.3414    0.6343 H   0  0  0  0  0  0  0  0  0  0  0  0
   -1.7767   -0.5262   -1.5221 H   0  0  0  0  0  0  0  0  0  0  0  0
   -0.7647   -1.8521   -0.9690 H   0  0  0  0  0  0  0  0  0  0  0  0
   -2.8660   -2.4982   -1.6567 H   0  0  0  0  0  0  0  0  0  0  0  0
   -4.9466   -3.6316   -2.3250 H   0  0  0  0  0  0  0  0  0  0  0  0
   -6.9503   -3.5597   -0.8521 H   0  0  0  0  0  0  0  0  0  0  0  0
   -6.8402   -2.3422    1.3202 H   0  0  0  0  0  0  0  0  0  0  0  0
   -4.7480   -1.2169    2.0100 H   0  0  0  0  0  0  0  0  0  0  0  0
   -4.1360    0.7551   -0.5970 H   0  0  0  0  0  0  0  0  0  0  0  0
   -4.7670    3.1370   -0.3329 H   0  0  0  0  0  0  0  0  0  0  0  0
   -3.7019    4.5260    1.4375 H   0  0  0  0  0  0  0  0  0  0  0  0
   -1.9916    3.5179    2.9411 H   0  0  0  0  0  0  0  0  0  0  0  0
   -1.3595    1.1340    2.6788 H   0  0  0  0  0  0  0  0  0  0  0  0
    6.5906   -1.9977    1.2504 C   0  0  0  0  0  0  0  0  0  0  0  0
    6.7377   -0.4771    1.3402 C   0  0  0  0  0  0  0  0  0  0  0  0
    6.6731    0.0001   -0.1231 C   0  0  0  0  0  0  0  0  0  0  0  0
    5.9101   -1.1102   -0.8923 C   0  0  0  0  0  0  0  0  0  0  0  0
    5.5180   -2.1504    0.1701 C   0  0  0  0  0  0  0  0  0  0  0  0
    6.3167   -2.4674    2.2061 H   0  0  0  0  0  0  0  0  0  0  0  0
    7.6492   -0.1524    1.8613 H   0  0  0  0  0  0  0  0  0  0  0  0
    7.6846    0.1282   -0.5360 H   0  0  0  0  0  0  0  0  0  0  0  0
    6.5587   -1.5697   -1.6533 H   0  0  0  0  0  0  0  0  0  0  0  0
    4.5475   -1.8630    0.6120 H   0  0  0  0  0  0  0  0  0  0  0  0
    1.5011    2.1642   -3.1156 H   0  0  0  0  0  0  0  0  0  0  0  0
    1.2483    3.0927   -0.2309 H   0  0  0  0  0  0  0  0  0  0  0  0
   -1.0786    2.9765   -0.3052 H   0  0  0  0  0  0  0  0  0  0  0  0
   -1.9628    1.4147   -1.9136 H   0  0  0  0  0  0  0  0  0  0  0  0
    0.2630    0.1588   -2.7679 H   0  0  0  0  0  0  0  0  0  0  0  0
    7.5356   -2.4546    0.9103 H   0  0  0  0  0  0  0  0  0  0  0  0
    5.8736   -0.0711    1.8917 H   0  0  0  0  0  0  0  0  0  0  0  0
    6.1649    0.9721   -0.2036 H   0  0  0  0  0  0  0  0  0  0  0  0
    5.0287   -0.7103   -1.4180 H   0  0  0  0  0  0  0  0  0  0  0  0
    5.4248   -3.1712   -0.2289 H   0  0  0  0  0  0  0  0  0  0  0  0
  1  8  1  0  0  0  0
  2  3  1  0  0  0  0
  2  6  1  0  0  0  0
  2 25  1  0  0  0  0
  2 58  1  0  0  0  0
  3  4  1  0  0  0  0
  3 26  1  0  0  0  0
  3 59  1  0  0  0  0
  4  5  1  0  0  0  0
  4 27  1  0  0  0  0
  4 60  1  0  0  0  0
  5  6  1  0  0  0  0
  5 28  1  0  0  0  0
  5 61  1  0  0  0  0
  6  7  1  0  0  0  0
  6 62  1  0  0  0  0
  7  8  1  0  0  0  0
  7 11  1  0  0  0  0
  7 29  1  1  0  0  0
  8  9  1  0  0  0  0
  8 10  1  0  0  0  0
  9 30  1  0  0  0  0
  9 31  1  0  0  0  0
  9 32  1  0  0  0  0
 10 33  1  0  0  0  0
 10 34  1  0  0  0  0
 10 35  1  0  0  0  0
 11 12  1  0  0  0  0
 11 36  1  0  0  0  0
 11 37  1  0  0  0  0
 12 13  1  0  0  0  0
 12 14  1  0  0  0  0
 13 20  2  0  0  0  0
 13 24  1  0  0  0  0
 14 15  2  0  0  0  0
 14 19  1  0  0  0  0
 15 16  1  0  0  0  0
 15 38  1  0  0  0  0
 16 17  2  0  0  0  0
 16 39  1  0  0  0  0
 17 18  1  0  0  0  0
 17 40  1  0  0  0  0
 18 19  2  0  0  0  0
 18 41  1  0  0  0  0
 19 42  1  0  0  0  0
 20 21  1  0  0  0  0
 20 43  1  0  0  0  0
 21 22  2  0  0  0  0
 21 44  1  0  0  0  0
 22 23  1  0  0  0  0
 22 45  1  0  0  0  0
 23 24  2  0  0  0  0
 23 46  1  0  0  0  0
 24 47  1  0  0  0  0
 30 57  1  0  0  0  0
 30 66  1  0  0  0  0
 48 49  1  0  0  0  0
 48 52  1  0  0  0  0
 48 53  1  0  0  0  0
 48 63  1  0  0  0  0
 49 50  1  0  0  0  0
 49 54  1  0  0  0  0
 49 64  1  0  0  0  0
 50 51  1  0  0  0  0
 50 55  1  0  0  0  0
 50 65  1  0  0  0  0
 51 52  1  0  0  0  0
 51 56  1  0  0  0  0
 51 66  1  0  0  0  0
 52 57  1  0  0  0  0
 52 67  1  0  0  0  0
M  END
$$$$
