Title Card Required
 OpenBabel03192317473D

 48 51  0  0  1  0  0  0  0  0999 V2000
    0.4707    0.6858    0.8742 C   0  0  2  0  0  0  0  0  0  0  0  0
    1.4838    1.5564    1.3304 O   0  0  0  0  0  0  0  0  0  0  0  0
    1.6194   -1.4661    0.4007 N   0  0  2  0  0  0  0  0  0  0  0  0
    1.0395   -0.2617   -0.2013 C   0  0  2  0  0  0  0  0  0  0  0  0
    2.0398    0.4255   -1.1711 C   0  0  0  0  0  0  0  0  0  0  0  0
    3.2583   -0.4962   -1.3141 C   0  0  1  0  0  0  0  0  0  0  0  0
    3.9653   -0.6552    0.0518 C   0  0  2  0  0  0  0  0  0  0  0  0
    2.8895   -1.1725    1.0613 C   0  0  0  0  0  0  0  0  0  0  0  0
    2.7777   -1.8822   -1.7641 C   0  0  0  0  0  0  0  0  0  0  0  0
    1.8477   -2.4506   -0.6548 C   0  0  0  0  0  0  0  0  0  0  0  0
    4.6189    0.6087    0.5307 C   0  0  0  0  0  0  0  0  0  0  0  0
    5.9355    0.7846    0.6426 C   0  0  0  0  0  0  0  0  0  0  0  0
   -2.9433    2.8789   -0.6786 N   0  0  0  0  0  0  0  0  0  0  0  0
   -1.7805    3.4468   -0.5108 C   0  0  0  0  0  0  0  0  0  0  0  0
   -0.6355    2.7736   -0.0018 C   0  0  0  0  0  0  0  0  0  0  0  0
   -0.7233    1.4474    0.3391 C   0  0  0  0  0  0  0  0  0  0  0  0
   -1.9828    0.7861    0.1627 C   0  0  0  0  0  0  0  0  0  0  0  0
   -2.1930   -0.5787    0.4720 C   0  0  0  0  0  0  0  0  0  0  0  0
   -3.4336   -1.1604    0.2840 C   0  0  0  0  0  0  0  0  0  0  0  0
   -4.5137   -0.3879   -0.2218 C   0  0  0  0  0  0  0  0  0  0  0  0
   -4.3223    0.9380   -0.5277 C   0  0  0  0  0  0  0  0  0  0  0  0
   -3.0623    1.5630   -0.3501 C   0  0  0  0  0  0  0  0  0  0  0  0
   -3.5462   -2.4681    0.6016 O   0  0  0  0  0  0  0  0  0  0  0  0
   -4.7834   -3.1083    0.4301 C   0  0  0  0  0  0  0  0  0  0  0  0
    3.9678   -0.0780   -2.0428 H   0  0  0  0  0  0  0  0  0  0  0  0
    0.1325    0.0345    1.6993 H   0  0  0  0  0  0  0  0  0  0  0  0
    1.1452    2.0414    2.0917 H   0  0  0  0  0  0  0  0  0  0  0  0
    0.1743   -0.6168   -0.7803 H   0  0  0  0  0  0  0  0  0  0  0  0
    1.5737    0.5841   -2.1547 H   0  0  0  0  0  0  0  0  0  0  0  0
    2.3467    1.4094   -0.7918 H   0  0  0  0  0  0  0  0  0  0  0  0
    4.7524   -1.4171   -0.0756 H   0  0  0  0  0  0  0  0  0  0  0  0
    3.2360   -2.0900    1.5592 H   0  0  0  0  0  0  0  0  0  0  0  0
    2.7160   -0.4220    1.8435 H   0  0  0  0  0  0  0  0  0  0  0  0
    3.6405   -2.5432   -1.9350 H   0  0  0  0  0  0  0  0  0  0  0  0
    2.2433   -1.7944   -2.7225 H   0  0  0  0  0  0  0  0  0  0  0  0
    2.2884   -3.3442   -0.1885 H   0  0  0  0  0  0  0  0  0  0  0  0
    0.8725   -2.7506   -1.0669 H   0  0  0  0  0  0  0  0  0  0  0  0
    3.9353    1.4170    0.8166 H   0  0  0  0  0  0  0  0  0  0  0  0
    6.3575    1.7256    1.0010 H   0  0  0  0  0  0  0  0  0  0  0  0
    6.6380   -0.0121    0.3806 H   0  0  0  0  0  0  0  0  0  0  0  0
   -1.7014    4.5049   -0.7832 H   0  0  0  0  0  0  0  0  0  0  0  0
    0.3085    3.3063    0.1177 H   0  0  0  0  0  0  0  0  0  0  0  0
   -1.3895   -1.2125    0.8518 H   0  0  0  0  0  0  0  0  0  0  0  0
   -5.4948   -0.8366   -0.3709 H   0  0  0  0  0  0  0  0  0  0  0  0
   -5.1331    1.5536   -0.9185 H   0  0  0  0  0  0  0  0  0  0  0  0
   -5.5689   -2.6490    1.0528 H   0  0  0  0  0  0  0  0  0  0  0  0
   -5.1060   -3.0938   -0.6242 H   0  0  0  0  0  0  0  0  0  0  0  0
   -4.6426   -4.1481    0.7448 H   0  0  0  0  0  0  0  0  0  0  0  0
  1  2  1  0  0  0  0
  1  4  1  0  0  0  0
  1 16  1  0  0  0  0
  1 26  1  1  0  0  0
  2 27  1  0  0  0  0
  3  4  1  0  0  0  0
  3  8  1  6  0  0  0
  3 10  1  0  0  0  0
  4  5  1  0  0  0  0
  4 28  1  6  0  0  0
  5  6  1  0  0  0  0
  5 29  1  0  0  0  0
  5 30  1  0  0  0  0
  6  7  1  0  0  0  0
  6  9  1  0  0  0  0
  6 25  1  6  0  0  0
  7  8  1  0  0  0  0
  7 11  1  0  0  0  0
  7 31  1  6  0  0  0
  8 32  1  0  0  0  0
  8 33  1  0  0  0  0
  9 10  1  0  0  0  0
  9 34  1  0  0  0  0
  9 35  1  0  0  0  0
 10 36  1  0  0  0  0
 10 37  1  0  0  0  0
 11 12  2  0  0  0  0
 11 38  1  0  0  0  0
 12 39  1  0  0  0  0
 12 40  1  0  0  0  0
 13 14  2  0  0  0  0
 13 22  1  0  0  0  0
 14 15  1  0  0  0  0
 14 41  1  0  0  0  0
 15 16  2  0  0  0  0
 15 42  1  0  0  0  0
 16 17  1  0  0  0  0
 17 18  2  0  0  0  0
 17 22  1  0  0  0  0
 18 19  1  0  0  0  0
 18 43  1  0  0  0  0
 19 20  2  0  0  0  0
 19 23  1  0  0  0  0
 20 21  1  0  0  0  0
 20 44  1  0  0  0  0
 21 22  2  0  0  0  0
 21 45  1  0  0  0  0
 23 24  1  0  0  0  0
 24 46  1  0  0  0  0
 24 47  1  0  0  0  0
 24 48  1  0  0  0  0
M  END
$$$$
