Title Card Required
 OpenBabel03192317563D

 77 83  0  0  1  0  0  0  0  0999 V2000
    0.2248    3.2760    0.5666 N   0  0  0  0  0  0  0  0  0  0  0  0
    0.2618    4.6245   -0.0036 C   0  0  0  0  0  0  0  0  0  0  0  0
    0.7448    5.4760    1.1700 C   0  0  0  0  0  0  0  0  0  0  0  0
    0.0985    4.7803    2.3700 C   0  0  0  0  0  0  0  0  0  0  0  0
    0.2605    3.2960    2.0325 C   0  0  0  0  0  0  0  0  0  0  0  0
   -1.2739    1.2526    0.3440 O   0  0  0  0  0  0  0  0  0  0  0  0
    0.1118    1.9050   -0.3648 P   0  0  2  0  0  0  0  0  0  0  0  0
    1.2014    0.9737    0.5115 O   0  0  0  0  0  0  0  0  0  0  0  0
    1.7348   -0.2371    0.0016 C   0  0  0  0  0  0  0  0  0  0  0  0
    0.5621   -1.0475   -0.6272 C   0  0  2  0  0  0  0  0  0  0  0  0
   -0.7250   -1.0709    0.2302 C   0  0  1  0  0  0  0  0  0  0  0  0
   -1.7982    0.0050   -0.0827 C   0  0  0  0  0  0  0  0  0  0  0  0
   -1.2239   -2.3672    0.0032 O   0  0  0  0  0  0  0  0  0  0  0  0
   -0.1215   -3.2255   -0.1859 C   0  0  0  0  0  0  0  0  0  0  0  0
    0.8669   -2.4095   -0.8173 O   0  0  0  0  0  0  0  0  0  0  0  0
   -3.0211   -0.2943    0.7904 C   0  0  0  0  0  0  0  0  0  0  0  0
   -3.2410    0.4054    1.9782 C   0  0  0  0  0  0  0  0  0  0  0  0
   -4.3404    0.0988    2.7828 C   0  0  0  0  0  0  0  0  0  0  0  0
   -5.2249   -0.9097    2.4102 C   0  0  0  0  0  0  0  0  0  0  0  0
   -5.0076   -1.6110    1.2235 C   0  0  0  0  0  0  0  0  0  0  0  0
   -3.9156   -1.3037    0.4183 C   0  0  0  0  0  0  0  0  0  0  0  0
   -2.2381    0.1104   -1.5496 C   0  0  0  0  0  0  0  0  0  0  0  0
   -2.0766   -0.9017   -2.4991 C   0  0  0  0  0  0  0  0  0  0  0  0
   -2.5492   -0.7316   -3.8027 C   0  0  0  0  0  0  0  0  0  0  0  0
   -3.1943    0.4448   -4.1712 C   0  0  0  0  0  0  0  0  0  0  0  0
   -3.3661    1.4574   -3.2262 C   0  0  0  0  0  0  0  0  0  0  0  0
   -2.8925    1.2897   -1.9296 C   0  0  0  0  0  0  0  0  0  0  0  0
    2.3435   -0.9830    1.1855 C   0  0  0  0  0  0  0  0  0  0  0  0
    1.9682   -0.6599    2.4931 C   0  0  0  0  0  0  0  0  0  0  0  0
    2.4675   -1.3910    3.5718 C   0  0  0  0  0  0  0  0  0  0  0  0
    3.3526   -2.4450    3.3563 C   0  0  0  0  0  0  0  0  0  0  0  0
    3.7462   -2.7574    2.0548 C   0  0  0  0  0  0  0  0  0  0  0  0
    3.2465   -2.0312    0.9771 C   0  0  0  0  0  0  0  0  0  0  0  0
    2.8048    0.0770   -1.0471 C   0  0  0  0  0  0  0  0  0  0  0  0
    3.6432    1.1770   -0.8347 C   0  0  0  0  0  0  0  0  0  0  0  0
    4.6413    1.4920   -1.7520 C   0  0  0  0  0  0  0  0  0  0  0  0
    4.8168    0.7087   -2.8937 C   0  0  0  0  0  0  0  0  0  0  0  0
    3.9869   -0.3881   -3.1091 C   0  0  0  0  0  0  0  0  0  0  0  0
    2.9828   -0.7041   -2.1917 C   0  0  0  0  0  0  0  0  0  0  0  0
    0.3839   -3.7653    1.1451 C   0  0  0  0  0  0  0  0  0  0  0  0
   -0.5213   -4.3353   -1.1363 C   0  0  0  0  0  0  0  0  0  0  0  0
    0.3546   -0.5904   -1.6111 H   0  0  0  0  0  0  0  0  0  0  0  0
   -0.4693   -0.9269    1.2955 H   0  0  0  0  0  0  0  0  0  0  0  0
   -0.7400    4.9570   -0.3309 H   0  0  0  0  0  0  0  0  0  0  0  0
    0.9333    4.6749   -0.8734 H   0  0  0  0  0  0  0  0  0  0  0  0
    1.8414    5.4144    1.2469 H   0  0  0  0  0  0  0  0  0  0  0  0
    0.4662    6.5333    1.0706 H   0  0  0  0  0  0  0  0  0  0  0  0
    0.5570    5.0477    3.3311 H   0  0  0  0  0  0  0  0  0  0  0  0
   -0.9703    5.0397    2.4178 H   0  0  0  0  0  0  0  0  0  0  0  0
    1.2244    2.9022    2.3975 H   0  0  0  0  0  0  0  0  0  0  0  0
   -0.5405    2.6710    2.4543 H   0  0  0  0  0  0  0  0  0  0  0  0
   -2.5502    1.1980    2.2630 H   0  0  0  0  0  0  0  0  0  0  0  0
   -4.5049    0.6556    3.7069 H   0  0  0  0  0  0  0  0  0  0  0  0
   -6.0842   -1.1483    3.0391 H   0  0  0  0  0  0  0  0  0  0  0  0
   -5.6965   -2.4008    0.9198 H   0  0  0  0  0  0  0  0  0  0  0  0
   -3.7502   -1.8507   -0.5103 H   0  0  0  0  0  0  0  0  0  0  0  0
   -1.5870   -1.8339   -2.2235 H   0  0  0  0  0  0  0  0  0  0  0  0
   -2.4105   -1.5309   -4.5325 H   0  0  0  0  0  0  0  0  0  0  0  0
   -3.5645    0.5735   -5.1894 H   0  0  0  0  0  0  0  0  0  0  0  0
   -3.8756    2.3824   -3.5012 H   0  0  0  0  0  0  0  0  0  0  0  0
   -3.0272    2.0775   -1.1862 H   0  0  0  0  0  0  0  0  0  0  0  0
    1.2791    0.1685    2.6571 H   0  0  0  0  0  0  0  0  0  0  0  0
    2.1631   -1.1312    4.5871 H   0  0  0  0  0  0  0  0  0  0  0  0
    3.7434   -3.0158    4.2002 H   0  0  0  0  0  0  0  0  0  0  0  0
    4.4493   -3.5729    1.8772 H   0  0  0  0  0  0  0  0  0  0  0  0
    3.5539   -2.2823   -0.0389 H   0  0  0  0  0  0  0  0  0  0  0  0
    3.4941    1.7887    0.0568 H   0  0  0  0  0  0  0  0  0  0  0  0
    5.2871    2.3540   -1.5760 H   0  0  0  0  0  0  0  0  0  0  0  0
    5.5983    0.9553   -3.6142 H   0  0  0  0  0  0  0  0  0  0  0  0
    4.1146   -1.0044   -4.0005 H   0  0  0  0  0  0  0  0  0  0  0  0
    2.3419   -1.5703   -2.3646 H   0  0  0  0  0  0  0  0  0  0  0  0
   -0.3847   -4.4137    1.5872 H   0  0  0  0  0  0  0  0  0  0  0  0
    1.3034   -4.3441    0.9867 H   0  0  0  0  0  0  0  0  0  0  0  0
    0.6111   -2.9526    1.8482 H   0  0  0  0  0  0  0  0  0  0  0  0
   -0.8379   -3.9109   -2.0975 H   0  0  0  0  0  0  0  0  0  0  0  0
    0.3319   -5.0042   -1.3072 H   0  0  0  0  0  0  0  0  0  0  0  0
   -1.3491   -4.9127   -0.7048 H   0  0  0  0  0  0  0  0  0  0  0  0
  1  2  1  0  0  0  0
  1  5  1  0  0  0  0
  2  3  1  0  0  0  0
  2 44  1  0  0  0  0
  2 45  1  0  0  0  0
  3  4  1  0  0  0  0
  3 46  1  0  0  0  0
  3 47  1  0  0  0  0
  4  5  1  0  0  0  0
  4 48  1  0  0  0  0
  4 49  1  0  0  0  0
  5 50  1  0  0  0  0
  5 51  1  0  0  0  0
  6  7  1  0  0  0  0
  6 12  1  0  0  0  0
  7  1  1  1  0  0  0
  7  8  1  0  0  0  0
  8  9  1  0  0  0  0
  9 10  1  0  0  0  0
  9 28  1  0  0  0  0
  9 34  1  0  0  0  0
 10 11  1  0  0  0  0
 10 15  1  0  0  0  0
 10 42  1  6  0  0  0
 11 12  1  0  0  0  0
 11 13  1  0  0  0  0
 11 43  1  1  0  0  0
 12 16  1  0  0  0  0
 12 22  1  0  0  0  0
 13 14  1  0  0  0  0
 14 15  1  0  0  0  0
 14 40  1  0  0  0  0
 14 41  1  0  0  0  0
 16 17  2  0  0  0  0
 16 21  1  0  0  0  0
 17 18  1  0  0  0  0
 17 52  1  0  0  0  0
 18 19  2  0  0  0  0
 18 53  1  0  0  0  0
 19 20  1  0  0  0  0
 19 54  1  0  0  0  0
 20 21  2  0  0  0  0
 20 55  1  0  0  0  0
 21 56  1  0  0  0  0
 22 23  2  0  0  0  0
 22 27  1  0  0  0  0
 23 24  1  0  0  0  0
 23 57  1  0  0  0  0
 24 25  2  0  0  0  0
 24 58  1  0  0  0  0
 25 26  1  0  0  0  0
 25 59  1  0  0  0  0
 26 27  2  0  0  0  0
 26 60  1  0  0  0  0
 27 61  1  0  0  0  0
 28 29  2  0  0  0  0
 28 33  1  0  0  0  0
 29 30  1  0  0  0  0
 29 62  1  0  0  0  0
 30 31  2  0  0  0  0
 30 63  1  0  0  0  0
 31 32  1  0  0  0  0
 31 64  1  0  0  0  0
 32 33  2  0  0  0  0
 32 65  1  0  0  0  0
 33 66  1  0  0  0  0
 34 35  2  0  0  0  0
 34 39  1  0  0  0  0
 35 36  1  0  0  0  0
 35 67  1  0  0  0  0
 36 37  2  0  0  0  0
 36 68  1  0  0  0  0
 37 38  1  0  0  0  0
 37 69  1  0  0  0  0
 38 39  2  0  0  0  0
 38 70  1  0  0  0  0
 39 71  1  0  0  0  0
 40 72  1  0  0  0  0
 40 73  1  0  0  0  0
 40 74  1  0  0  0  0
 41 75  1  0  0  0  0
 41 76  1  0  0  0  0
 41 77  1  0  0  0  0
M  END
$$$$
