Title Card Required
 OpenBabel03192317523D

 73 78  0  0  1  0  0  0  0  0999 V2000
   -0.0600   -2.4683    2.6393 N   0  0  0  0  0  0  0  0  0  0  0  0
   -0.4627   -3.8278    2.9271 C   0  0  0  0  0  0  0  0  0  0  0  0
    0.0091   -1.5749    3.7777 C   0  0  0  0  0  0  0  0  0  0  0  0
    1.3055   -0.9485    1.1987 O   0  0  0  0  0  0  0  0  0  0  0  0
   -0.0603   -1.9176    1.0644 P   0  0  2  0  0  0  0  0  0  0  0  0
   -1.1701   -0.6626    1.2386 O   0  0  0  0  0  0  0  0  0  0  0  0
   -1.7449    0.0021    0.1255 C   0  0  0  0  0  0  0  0  0  0  0  0
   -0.6031    0.2972   -0.8898 C   0  0  2  0  0  0  0  0  0  0  0  0
    0.6868    0.8555   -0.2450 C   0  0  1  0  0  0  0  0  0  0  0  0
    1.7919   -0.1757    0.1123 C   0  0  0  0  0  0  0  0  0  0  0  0
    1.1415    1.7771   -1.2064 O   0  0  0  0  0  0  0  0  0  0  0  0
    0.0132    2.3202   -1.8565 C   0  0  0  0  0  0  0  0  0  0  0  0
   -0.9515    1.2673   -1.8489 O   0  0  0  0  0  0  0  0  0  0  0  0
    3.0075    0.5991    0.6335 C   0  0  0  0  0  0  0  0  0  0  0  0
    3.2706    0.6690    2.0029 C   0  0  0  0  0  0  0  0  0  0  0  0
    4.3599    1.4026    2.4758 C   0  0  0  0  0  0  0  0  0  0  0  0
    5.1939    2.0734    1.5860 C   0  0  0  0  0  0  0  0  0  0  0  0
    4.9359    2.0034    0.2163 C   0  0  0  0  0  0  0  0  0  0  0  0
    3.8529    1.2695   -0.2579 C   0  0  0  0  0  0  0  0  0  0  0  0
    2.2302   -1.1108   -1.0236 C   0  0  0  0  0  0  0  0  0  0  0  0
    2.0633   -0.8287   -2.3818 C   0  0  0  0  0  0  0  0  0  0  0  0
    2.5253   -1.7195   -3.3531 C   0  0  0  0  0  0  0  0  0  0  0  0
    3.1655   -2.8977   -2.9816 C   0  0  0  0  0  0  0  0  0  0  0  0
    3.3429   -3.1830   -1.6271 C   0  0  0  0  0  0  0  0  0  0  0  0
    2.8799   -2.2978   -0.6593 C   0  0  0  0  0  0  0  0  0  0  0  0
   -2.3604    1.2967    0.6513 C   0  0  0  0  0  0  0  0  0  0  0  0
   -1.9677    1.8130    1.8892 C   0  0  0  0  0  0  0  0  0  0  0  0
   -2.4759    3.0319    2.3406 C   0  0  0  0  0  0  0  0  0  0  0  0
   -3.3903    3.7408    1.5649 C   0  0  0  0  0  0  0  0  0  0  0  0
   -3.8029    3.2185    0.3387 C   0  0  0  0  0  0  0  0  0  0  0  0
   -3.2928    2.0046   -0.1152 C   0  0  0  0  0  0  0  0  0  0  0  0
   -2.8226   -0.8887   -0.4966 C   0  0  0  0  0  0  0  0  0  0  0  0
   -3.6548   -1.6144    0.3635 C   0  0  0  0  0  0  0  0  0  0  0  0
   -4.6634   -2.4255   -0.1466 C   0  0  0  0  0  0  0  0  0  0  0  0
   -4.8566   -2.5189   -1.5261 C   0  0  0  0  0  0  0  0  0  0  0  0
   -4.0351   -1.7958   -2.3862 C   0  0  0  0  0  0  0  0  0  0  0  0
   -3.0197   -0.9835   -1.8762 C   0  0  0  0  0  0  0  0  0  0  0  0
   -0.5033    3.5430   -1.1119 C   0  0  0  0  0  0  0  0  0  0  0  0
    0.3783    2.6394   -3.2920 C   0  0  0  0  0  0  0  0  0  0  0  0
   -0.3839   -0.6533   -1.4092 H   0  0  0  0  0  0  0  0  0  0  0  0
    0.4433    1.3649    0.7048 H   0  0  0  0  0  0  0  0  0  0  0  0
    0.2554   -4.3074    3.6129 H   0  0  0  0  0  0  0  0  0  0  0  0
   -1.4620   -3.8696    3.3964 H   0  0  0  0  0  0  0  0  0  0  0  0
   -0.4946   -4.4148    1.9989 H   0  0  0  0  0  0  0  0  0  0  0  0
    0.7196   -1.9636    4.5256 H   0  0  0  0  0  0  0  0  0  0  0  0
    0.3564   -0.5873    3.4500 H   0  0  0  0  0  0  0  0  0  0  0  0
   -0.9774   -1.4586    4.2603 H   0  0  0  0  0  0  0  0  0  0  0  0
    2.6229    0.1346    2.6963 H   0  0  0  0  0  0  0  0  0  0  0  0
    4.5563    1.4448    3.5484 H   0  0  0  0  0  0  0  0  0  0  0  0
    6.0460    2.6466    1.9549 H   0  0  0  0  0  0  0  0  0  0  0  0
    5.5865    2.5217   -0.4900 H   0  0  0  0  0  0  0  0  0  0  0  0
    3.6556    1.2167   -1.3289 H   0  0  0  0  0  0  0  0  0  0  0  0
    1.5751    0.0942   -2.6871 H   0  0  0  0  0  0  0  0  0  0  0  0
    2.3810   -1.4842   -4.4088 H   0  0  0  0  0  0  0  0  0  0  0  0
    3.5275   -3.5915   -3.7418 H   0  0  0  0  0  0  0  0  0  0  0  0
    3.8481   -4.1012   -1.3230 H   0  0  0  0  0  0  0  0  0  0  0  0
    3.0180   -2.5189    0.4005 H   0  0  0  0  0  0  0  0  0  0  0  0
   -1.2618    1.2486    2.4977 H   0  0  0  0  0  0  0  0  0  0  0  0
   -2.1556    3.4249    3.3069 H   0  0  0  0  0  0  0  0  0  0  0  0
   -3.7884    4.6933    1.9186 H   0  0  0  0  0  0  0  0  0  0  0  0
   -4.5279    3.7613   -0.2700 H   0  0  0  0  0  0  0  0  0  0  0  0
   -3.6144    1.6033   -1.0772 H   0  0  0  0  0  0  0  0  0  0  0  0
   -3.4953   -1.5360    1.4405 H   0  0  0  0  0  0  0  0  0  0  0  0
   -5.3034   -2.9897    0.5339 H   0  0  0  0  0  0  0  0  0  0  0  0
   -5.6454   -3.1570   -1.9276 H   0  0  0  0  0  0  0  0  0  0  0  0
   -4.1793   -1.8632   -3.4658 H   0  0  0  0  0  0  0  0  0  0  0  0
   -2.3897   -0.4104   -2.5587 H   0  0  0  0  0  0  0  0  0  0  0  0
    0.2477    4.3427   -1.1679 H   0  0  0  0  0  0  0  0  0  0  0  0
   -1.4403    3.8903   -1.5667 H   0  0  0  0  0  0  0  0  0  0  0  0
   -0.7015    3.3145   -0.0561 H   0  0  0  0  0  0  0  0  0  0  0  0
    0.6908    1.7257   -3.8132 H   0  0  0  0  0  0  0  0  0  0  0  0
   -0.4918    3.0621   -3.8107 H   0  0  0  0  0  0  0  0  0  0  0  0
    1.1983    3.3687   -3.3135 H   0  0  0  0  0  0  0  0  0  0  0  0
  1  2  1  0  0  0  0
  1  3  1  0  0  0  0
  2 42  1  0  0  0  0
  2 43  1  0  0  0  0
  2 44  1  0  0  0  0
  3 45  1  0  0  0  0
  3 46  1  0  0  0  0
  3 47  1  0  0  0  0
  4  5  1  0  0  0  0
  4 10  1  0  0  0  0
  5  1  1  1  0  0  0
  5  6  1  0  0  0  0
  6  7  1  0  0  0  0
  7  8  1  0  0  0  0
  7 26  1  0  0  0  0
  7 32  1  0  0  0  0
  8  9  1  0  0  0  0
  8 13  1  0  0  0  0
  8 40  1  6  0  0  0
  9 10  1  0  0  0  0
  9 11  1  0  0  0  0
  9 41  1  1  0  0  0
 10 14  1  0  0  0  0
 10 20  1  0  0  0  0
 11 12  1  0  0  0  0
 12 13  1  0  0  0  0
 12 38  1  0  0  0  0
 12 39  1  0  0  0  0
 14 15  2  0  0  0  0
 14 19  1  0  0  0  0
 15 16  1  0  0  0  0
 15 48  1  0  0  0  0
 16 17  2  0  0  0  0
 16 49  1  0  0  0  0
 17 18  1  0  0  0  0
 17 50  1  0  0  0  0
 18 19  2  0  0  0  0
 18 51  1  0  0  0  0
 19 52  1  0  0  0  0
 20 21  2  0  0  0  0
 20 25  1  0  0  0  0
 21 22  1  0  0  0  0
 21 53  1  0  0  0  0
 22 23  2  0  0  0  0
 22 54  1  0  0  0  0
 23 24  1  0  0  0  0
 23 55  1  0  0  0  0
 24 25  2  0  0  0  0
 24 56  1  0  0  0  0
 25 57  1  0  0  0  0
 26 27  2  0  0  0  0
 26 31  1  0  0  0  0
 27 28  1  0  0  0  0
 27 58  1  0  0  0  0
 28 29  2  0  0  0  0
 28 59  1  0  0  0  0
 29 30  1  0  0  0  0
 29 60  1  0  0  0  0
 30 31  2  0  0  0  0
 30 61  1  0  0  0  0
 31 62  1  0  0  0  0
 32 33  2  0  0  0  0
 32 37  1  0  0  0  0
 33 34  1  0  0  0  0
 33 63  1  0  0  0  0
 34 35  2  0  0  0  0
 34 64  1  0  0  0  0
 35 36  1  0  0  0  0
 35 65  1  0  0  0  0
 36 37  2  0  0  0  0
 36 66  1  0  0  0  0
 37 67  1  0  0  0  0
 38 68  1  0  0  0  0
 38 69  1  0  0  0  0
 38 70  1  0  0  0  0
 39 71  1  0  0  0  0
 39 72  1  0  0  0  0
 39 73  1  0  0  0  0
M  END
$$$$
