Title Card Required
 OpenBabel03192317423D

 73 78  0  0  1  0  0  0  0  0999 V2000
   -0.3233    1.4757   -0.7214 O   0  0  0  0  0  0  0  0  0  0  0  0
    0.2307    0.3363   -0.2343 C   0  0  0  0  0  0  0  0  0  0  0  0
    1.0112    0.4378    0.7554 N   0  0  0  0  0  0  0  0  0  0  0  0
    1.1031    1.8649    1.0727 C   0  0  2  0  0  0  0  0  0  0  0  0
   -0.0669    2.4706    0.2742 C   0  0  0  0  0  0  0  0  0  0  0  0
   -0.1108   -0.9203   -0.9901 C   0  0  0  0  0  0  0  0  0  0  0  0
   -3.4708   -2.2586   -1.2552 C   0  0  0  0  0  0  0  0  0  0  0  0
   -3.7292   -1.0073   -0.3836 C   0  0  1  0  0  0  0  0  0  0  0  0
   -2.3860   -0.4926   -0.1223 N   0  0  0  0  0  0  0  0  0  0  0  0
   -1.5992   -1.1201   -0.8863 C   0  0  0  0  0  0  0  0  0  0  0  0
   -2.1083   -2.1033   -1.6690 O   0  0  0  0  0  0  0  0  0  0  0  0
   -4.5766    0.0527   -1.1053 C   0  0  0  0  0  0  0  0  0  0  0  0
    2.4658    2.4247    0.6369 C   0  0  0  0  0  0  0  0  0  0  0  0
    3.6364    1.7169    1.2663 C   0  0  0  0  0  0  0  0  0  0  0  0
   -4.7059    1.3460   -0.3408 C   0  0  0  0  0  0  0  0  0  0  0  0
   -3.6728    2.2916   -0.3702 C   0  0  0  0  0  0  0  0  0  0  0  0
   -3.7830    3.4820    0.3444 C   0  0  0  0  0  0  0  0  0  0  0  0
   -4.9220    3.7435    1.1076 C   0  0  0  0  0  0  0  0  0  0  0  0
   -5.9510    2.8060    1.1497 C   0  0  0  0  0  0  0  0  0  0  0  0
   -5.8415    1.6167    0.4278 C   0  0  0  0  0  0  0  0  0  0  0  0
    4.1453    0.5411    0.7003 C   0  0  0  0  0  0  0  0  0  0  0  0
    5.2136   -0.1251    1.2967 C   0  0  0  0  0  0  0  0  0  0  0  0
    5.7857    0.3707    2.4694 C   0  0  0  0  0  0  0  0  0  0  0  0
    5.2829    1.5371    3.0423 C   0  0  0  0  0  0  0  0  0  0  0  0
    4.2158    2.2039    2.4412 C   0  0  0  0  0  0  0  0  0  0  0  0
    0.2717   -0.7211   -2.4855 C   0  0  0  0  0  0  0  0  0  0  0  0
    1.7234   -0.3607   -2.6928 C   0  0  0  0  0  0  0  0  0  0  0  0
    2.1088    0.9820   -2.7877 C   0  0  0  0  0  0  0  0  0  0  0  0
    3.4474    1.3337   -2.9579 C   0  0  0  0  0  0  0  0  0  0  0  0
    4.4266    0.3445   -3.0340 C   0  0  0  0  0  0  0  0  0  0  0  0
    4.0558   -0.9970   -2.9477 C   0  0  0  0  0  0  0  0  0  0  0  0
    2.7157   -1.3450   -2.7820 C   0  0  0  0  0  0  0  0  0  0  0  0
    0.6109   -2.1589   -0.3907 C   0  0  0  0  0  0  0  0  0  0  0  0
   -0.0494   -2.7588    0.8305 C   0  0  0  0  0  0  0  0  0  0  0  0
   -0.9893   -3.7860    0.6739 C   0  0  0  0  0  0  0  0  0  0  0  0
   -1.6342   -4.3422    1.7773 C   0  0  0  0  0  0  0  0  0  0  0  0
   -1.3400   -3.8822    3.0602 C   0  0  0  0  0  0  0  0  0  0  0  0
   -0.3957   -2.8701    3.2274 C   0  0  0  0  0  0  0  0  0  0  0  0
    0.2448   -2.3105    2.1226 C   0  0  0  0  0  0  0  0  0  0  0  0
    0.9788    2.0085    2.1559 H   0  0  0  0  0  0  0  0  0  0  0  0
   -0.9778    2.5832    0.8830 H   0  0  0  0  0  0  0  0  0  0  0  0
    0.1744    3.4189   -0.2248 H   0  0  0  0  0  0  0  0  0  0  0  0
   -3.5524   -3.1946   -0.6819 H   0  0  0  0  0  0  0  0  0  0  0  0
   -4.1075   -2.3137   -2.1487 H   0  0  0  0  0  0  0  0  0  0  0  0
   -4.2119   -1.2661    0.5705 H   0  0  0  0  0  0  0  0  0  0  0  0
   -4.1095    0.2432   -2.0860 H   0  0  0  0  0  0  0  0  0  0  0  0
   -5.5750   -0.3716   -1.2953 H   0  0  0  0  0  0  0  0  0  0  0  0
    2.5281    2.3392   -0.4595 H   0  0  0  0  0  0  0  0  0  0  0  0
    2.4941    3.4963    0.8900 H   0  0  0  0  0  0  0  0  0  0  0  0
   -2.7701    2.0742   -0.9465 H   0  0  0  0  0  0  0  0  0  0  0  0
   -2.9748    4.2152    0.3034 H   0  0  0  0  0  0  0  0  0  0  0  0
   -5.0067    4.6775    1.6654 H   0  0  0  0  0  0  0  0  0  0  0  0
   -6.8465    3.0021    1.7418 H   0  0  0  0  0  0  0  0  0  0  0  0
   -6.6561    0.8885    0.4582 H   0  0  0  0  0  0  0  0  0  0  0  0
    3.6926    0.1513   -0.2156 H   0  0  0  0  0  0  0  0  0  0  0  0
    5.6032   -1.0378    0.8419 H   0  0  0  0  0  0  0  0  0  0  0  0
    6.6231   -0.1514    2.9353 H   0  0  0  0  0  0  0  0  0  0  0  0
    5.7251    1.9334    3.9579 H   0  0  0  0  0  0  0  0  0  0  0  0
    3.8283    3.1228    2.8891 H   0  0  0  0  0  0  0  0  0  0  0  0
    0.0214   -1.6506   -3.0157 H   0  0  0  0  0  0  0  0  0  0  0  0
   -0.3645    0.0760   -2.8959 H   0  0  0  0  0  0  0  0  0  0  0  0
    1.3403    1.7557   -2.7183 H   0  0  0  0  0  0  0  0  0  0  0  0
    3.7272    2.3864   -3.0295 H   0  0  0  0  0  0  0  0  0  0  0  0
    5.4749    0.6173   -3.1630 H   0  0  0  0  0  0  0  0  0  0  0  0
    4.8135   -1.7791   -3.0181 H   0  0  0  0  0  0  0  0  0  0  0  0
    2.4342   -2.3989   -2.7315 H   0  0  0  0  0  0  0  0  0  0  0  0
    0.6390   -2.9264   -1.1778 H   0  0  0  0  0  0  0  0  0  0  0  0
    1.6449   -1.8654   -0.1629 H   0  0  0  0  0  0  0  0  0  0  0  0
   -1.2132   -4.1516   -0.3316 H   0  0  0  0  0  0  0  0  0  0  0  0
   -2.3609   -5.1445    1.6356 H   0  0  0  0  0  0  0  0  0  0  0  0
   -1.8387   -4.3181    3.9274 H   0  0  0  0  0  0  0  0  0  0  0  0
   -0.1531   -2.5119    4.2293 H   0  0  0  0  0  0  0  0  0  0  0  0
    0.9751   -1.5103    2.2467 H   0  0  0  0  0  0  0  0  0  0  0  0
  1  2  1  0  0  0  0
  1  5  1  0  0  0  0
  2  3  2  0  0  0  0
  2  6  1  0  0  0  0
  3  4  1  0  0  0  0
  4  5  1  0  0  0  0
  4 13  1  0  0  0  0
  4 40  1  1  0  0  0
  5 41  1  0  0  0  0
  5 42  1  0  0  0  0
  6 10  1  0  0  0  0
  6 26  1  0  0  0  0
  6 33  1  0  0  0  0
  7  8  1  0  0  0  0
  7 11  1  0  0  0  0
  7 43  1  0  0  0  0
  7 44  1  0  0  0  0
  8  9  1  0  0  0  0
  8 12  1  0  0  0  0
  8 45  1  1  0  0  0
  9 10  2  0  0  0  0
 10 11  1  0  0  0  0
 12 15  1  0  0  0  0
 12 46  1  0  0  0  0
 12 47  1  0  0  0  0
 13 14  1  0  0  0  0
 13 48  1  0  0  0  0
 13 49  1  0  0  0  0
 14 21  2  0  0  0  0
 14 25  1  0  0  0  0
 15 16  2  0  0  0  0
 15 20  1  0  0  0  0
 16 17  1  0  0  0  0
 16 50  1  0  0  0  0
 17 18  2  0  0  0  0
 17 51  1  0  0  0  0
 18 19  1  0  0  0  0
 18 52  1  0  0  0  0
 19 20  2  0  0  0  0
 19 53  1  0  0  0  0
 20 54  1  0  0  0  0
 21 22  1  0  0  0  0
 21 55  1  0  0  0  0
 22 23  2  0  0  0  0
 22 56  1  0  0  0  0
 23 24  1  0  0  0  0
 23 57  1  0  0  0  0
 24 25  2  0  0  0  0
 24 58  1  0  0  0  0
 25 59  1  0  0  0  0
 26 27  1  0  0  0  0
 26 60  1  0  0  0  0
 26 61  1  0  0  0  0
 27 28  2  0  0  0  0
 27 32  1  0  0  0  0
 28 29  1  0  0  0  0
 28 62  1  0  0  0  0
 29 30  2  0  0  0  0
 29 63  1  0  0  0  0
 30 31  1  0  0  0  0
 30 64  1  0  0  0  0
 31 32  2  0  0  0  0
 31 65  1  0  0  0  0
 32 66  1  0  0  0  0
 33 34  1  0  0  0  0
 33 67  1  0  0  0  0
 33 68  1  0  0  0  0
 34 35  2  0  0  0  0
 34 39  1  0  0  0  0
 35 36  1  0  0  0  0
 35 69  1  0  0  0  0
 36 37  2  0  0  0  0
 36 70  1  0  0  0  0
 37 38  1  0  0  0  0
 37 71  1  0  0  0  0
 38 39  2  0  0  0  0
 38 72  1  0  0  0  0
 39 73  1  0  0  0  0
M  END
$$$$
