Title Card Required
 OpenBabel03192317563D

 36 40  0  0  0  0  0  0  0  0999 V2000
    1.2073    2.7678    0.0002 C   0  0  0  0  0  0  0  0  0  0  0  0
    1.2064    1.3675    0.0001 C   0  0  0  0  0  0  0  0  0  0  0  0
   -0.0001    0.6632    0.0001 C   0  0  0  0  0  0  0  0  0  0  0  0
   -1.2064    1.3676    0.0001 C   0  0  0  0  0  0  0  0  0  0  0  0
   -1.2070    2.7680    0.0002 C   0  0  0  0  0  0  0  0  0  0  0  0
    0.0002    3.4610    0.0003 C   0  0  0  0  0  0  0  0  0  0  0  0
    2.4894    0.6595    0.0000 C   0  0  0  0  0  0  0  0  0  0  0  0
   -2.4894    0.6597    0.0001 C   0  0  0  0  0  0  0  0  0  0  0  0
    2.4570   -0.7009    0.0003 O   0  0  0  0  0  0  0  0  0  0  0  0
    3.7624   -1.0776    0.0001 C   0  0  0  0  0  0  0  0  0  0  0  0
    4.5312    0.0934   -0.0002 C   0  0  0  0  0  0  0  0  0  0  0  0
    3.6701    1.1804   -0.0002 N   0  0  0  0  0  0  0  0  0  0  0  0
   -3.6704    1.1805   -0.0005 N   0  0  0  0  0  0  0  0  0  0  0  0
   -4.5313    0.0934   -0.0002 C   0  0  0  0  0  0  0  0  0  0  0  0
   -3.7624   -1.0776    0.0002 C   0  0  0  0  0  0  0  0  0  0  0  0
   -2.4571   -0.7005   -0.0000 O   0  0  0  0  0  0  0  0  0  0  0  0
    4.3033   -2.3560    0.0002 C   0  0  0  0  0  0  0  0  0  0  0  0
    5.6948   -2.4211   -0.0000 C   0  0  0  0  0  0  0  0  0  0  0  0
    6.4903   -1.2598   -0.0002 C   0  0  0  0  0  0  0  0  0  0  0  0
    5.9267    0.0115   -0.0003 C   0  0  0  0  0  0  0  0  0  0  0  0
   -5.9268    0.0114   -0.0004 C   0  0  0  0  0  0  0  0  0  0  0  0
   -6.4904   -1.2599   -0.0001 C   0  0  0  0  0  0  0  0  0  0  0  0
   -5.6947   -2.4211    0.0002 C   0  0  0  0  0  0  0  0  0  0  0  0
   -4.3032   -2.3560    0.0003 C   0  0  0  0  0  0  0  0  0  0  0  0
    2.1655    3.2888    0.0003 H   0  0  0  0  0  0  0  0  0  0  0  0
   -0.0001   -0.4269   -0.0000 H   0  0  0  0  0  0  0  0  0  0  0  0
   -2.1651    3.2892    0.0002 H   0  0  0  0  0  0  0  0  0  0  0  0
    0.0001    4.5514    0.0004 H   0  0  0  0  0  0  0  0  0  0  0  0
    3.6754   -3.2461    0.0003 H   0  0  0  0  0  0  0  0  0  0  0  0
    6.1809   -3.3974    0.0000 H   0  0  0  0  0  0  0  0  0  0  0  0
    7.5759   -1.3648   -0.0003 H   0  0  0  0  0  0  0  0  0  0  0  0
    6.5359    0.9150   -0.0005 H   0  0  0  0  0  0  0  0  0  0  0  0
   -6.5358    0.9151   -0.0007 H   0  0  0  0  0  0  0  0  0  0  0  0
   -7.5759   -1.3651   -0.0003 H   0  0  0  0  0  0  0  0  0  0  0  0
   -6.1806   -3.3975    0.0002 H   0  0  0  0  0  0  0  0  0  0  0  0
   -3.6754   -3.2461    0.0004 H   0  0  0  0  0  0  0  0  0  0  0  0
  1  2  2  0  0  0  0
  1  6  1  0  0  0  0
  1 25  1  0  0  0  0
  2  3  1  0  0  0  0
  2  7  1  0  0  0  0
  3  4  2  0  0  0  0
  3 26  1  0  0  0  0
  4  5  1  0  0  0  0
  4  8  1  0  0  0  0
  5  6  2  0  0  0  0
  5 27  1  0  0  0  0
  6 28  1  0  0  0  0
  7  9  1  0  0  0  0
  7 12  2  0  0  0  0
  8 13  2  0  0  0  0
  8 16  1  0  0  0  0
  9 10  1  0  0  0  0
 10 11  2  0  0  0  0
 10 17  1  0  0  0  0
 11 12  1  0  0  0  0
 11 20  1  0  0  0  0
 13 14  1  0  0  0  0
 14 15  2  0  0  0  0
 14 21  1  0  0  0  0
 15 16  1  0  0  0  0
 15 24  1  0  0  0  0
 17 18  2  0  0  0  0
 17 29  1  0  0  0  0
 18 19  1  0  0  0  0
 18 30  1  0  0  0  0
 19 20  2  0  0  0  0
 19 31  1  0  0  0  0
 20 32  1  0  0  0  0
 21 22  2  0  0  0  0
 21 33  1  0  0  0  0
 22 23  1  0  0  0  0
 22 34  1  0  0  0  0
 23 24  2  0  0  0  0
 23 35  1  0  0  0  0
 24 36  1  0  0  0  0
M  END
$$$$
