Title Card Required
 OpenBabel03192317483D

 56 60  0  0  1  0  0  0  0  0999 V2000
   -0.0900   -0.0555   -0.4466 C   0  0  1  0  0  0  0  0  0  0  0  0
    0.1151    0.4174   -1.7510 O   0  0  0  0  0  0  0  0  0  0  0  0
   -2.2462    0.9791    0.2162 N   0  0  2  0  0  0  0  0  0  0  0  0
   -1.5774   -0.3127   -0.1681 C   0  0  1  0  0  0  0  0  0  0  0  0
   -2.3877   -0.9291   -1.3197 C   0  0  0  0  0  0  0  0  0  0  0  0
   -3.7586   -0.2411   -1.3863 C   0  0  1  0  0  0  0  0  0  0  0  0
   -4.4100   -0.2038    0.0178 C   0  0  2  0  0  0  0  0  0  0  0  0
   -3.5136    0.6778    0.9279 C   0  0  0  0  0  0  0  0  0  0  0  0
   -3.5537    1.2028   -1.8599 C   0  0  0  0  0  0  0  0  0  0  0  0
   -2.5055    1.8696   -0.9529 C   0  0  0  0  0  0  0  0  0  0  0  0
   -4.6234   -1.5776    0.5932 C   0  0  0  0  0  0  0  0  0  0  0  0
   -5.8133   -2.1614    0.7206 C   0  0  0  0  0  0  0  0  0  0  0  0
    2.5212   -3.4823    0.2053 N   0  0  0  0  0  0  0  0  0  0  0  0
    1.2276   -3.6287    0.1396 C   0  0  0  0  0  0  0  0  0  0  0  0
    0.3154   -2.5534   -0.0547 C   0  0  0  0  0  0  0  0  0  0  0  0
    0.7841   -1.2713   -0.1930 C   0  0  0  0  0  0  0  0  0  0  0  0
    2.2032   -1.0734   -0.1110 C   0  0  0  0  0  0  0  0  0  0  0  0
    2.8078    0.2006   -0.2018 C   0  0  0  0  0  0  0  0  0  0  0  0
    4.1789    0.3402   -0.1120 C   0  0  0  0  0  0  0  0  0  0  0  0
    5.0017   -0.8022    0.0775 C   0  0  0  0  0  0  0  0  0  0  0  0
    4.4272   -2.0473    0.1749 C   0  0  0  0  0  0  0  0  0  0  0  0
    3.0236   -2.2216    0.0873 C   0  0  0  0  0  0  0  0  0  0  0  0
    4.6661    1.5981   -0.2169 O   0  0  0  0  0  0  0  0  0  0  0  0
    6.0508    1.8018   -0.1093 C   0  0  0  0  0  0  0  0  0  0  0  0
   -4.4235   -0.7806   -2.0743 H   0  0  0  0  0  0  0  0  0  0  0  0
    0.2182    0.7062    0.2924 H   0  0  0  0  0  0  0  0  0  0  0  0
    0.4970    1.3188   -1.6846 H   0  0  0  0  0  0  0  0  0  0  0  0
   -1.6355   -0.9100    0.7485 H   0  0  0  0  0  0  0  0  0  0  0  0
   -1.8482   -0.7769   -2.2654 H   0  0  0  0  0  0  0  0  0  0  0  0
   -2.5049   -2.0107   -1.1684 H   0  0  0  0  0  0  0  0  0  0  0  0
   -5.3947    0.2772   -0.0854 H   0  0  0  0  0  0  0  0  0  0  0  0
   -3.9818    1.6400    1.1734 H   0  0  0  0  0  0  0  0  0  0  0  0
   -3.2334    0.1795    1.8660 H   0  0  0  0  0  0  0  0  0  0  0  0
   -4.5077    1.7491   -1.8259 H   0  0  0  0  0  0  0  0  0  0  0  0
   -3.2047    1.2110   -2.9012 H   0  0  0  0  0  0  0  0  0  0  0  0
   -2.8248    2.8328   -0.5349 H   0  0  0  0  0  0  0  0  0  0  0  0
   -1.5461    2.0238   -1.4560 H   0  0  0  0  0  0  0  0  0  0  0  0
   -3.7260   -2.1169    0.9209 H   0  0  0  0  0  0  0  0  0  0  0  0
   -5.9149   -3.1662    1.1338 H   0  0  0  0  0  0  0  0  0  0  0  0
   -6.7301   -1.6478    0.4171 H   0  0  0  0  0  0  0  0  0  0  0  0
    0.8362   -4.6471    0.2392 H   0  0  0  0  0  0  0  0  0  0  0  0
   -0.7507   -2.7781   -0.0993 H   0  0  0  0  0  0  0  0  0  0  0  0
    2.2149    1.1018   -0.3500 H   0  0  0  0  0  0  0  0  0  0  0  0
    6.0840   -0.7040    0.1483 H   0  0  0  0  0  0  0  0  0  0  0  0
    5.0322   -2.9418    0.3254 H   0  0  0  0  0  0  0  0  0  0  0  0
    6.4361    1.4662    0.8676 H   0  0  0  0  0  0  0  0  0  0  0  0
    6.6013    1.2825   -0.9112 H   0  0  0  0  0  0  0  0  0  0  0  0
    6.2168    2.8805   -0.2049 H   0  0  0  0  0  0  0  0  0  0  0  0
   -1.6127    1.5466    0.8616 H   0  0  0  0  0  0  0  0  0  0  0  0
   -0.5373    2.9828    1.6267 Cl  0  0  0  0  0  0  0  0  0  0  0  0
    0.4818    3.0472   -0.1896 H   0  0  0  0  0  0  0  0  0  0  0  0
    0.8498    2.8984   -1.0945 O   0  0  0  0  0  0  0  0  0  0  0  0
    1.7354    3.2785   -1.0794 H   0  0  0  0  0  0  0  0  0  0  0  0
    0.0222   -0.3761    2.7758 H   0  0  0  0  0  0  0  0  0  0  0  0
   -0.8162    0.0880    2.6720 O   0  0  0  0  0  0  0  0  0  0  0  0
   -0.5683    1.0331    2.6384 H   0  0  0  0  0  0  0  0  0  0  0  0
  1  2  1  0  0  0  0
  1  4  1  0  0  0  0
  1 16  1  0  0  0  0
  1 26  1  1  0  0  0
  2 27  1  0  0  0  0
  3  4  1  0  0  0  0
  3  8  1  6  0  0  0
  3 10  1  0  0  0  0
  4  5  1  0  0  0  0
  4 28  1  1  0  0  0
  5  6  1  0  0  0  0
  5 29  1  0  0  0  0
  5 30  1  0  0  0  0
  6  7  1  0  0  0  0
  6  9  1  0  0  0  0
  6 25  1  6  0  0  0
  7  8  1  0  0  0  0
  7 11  1  0  0  0  0
  7 31  1  6  0  0  0
  8 32  1  0  0  0  0
  8 33  1  0  0  0  0
  9 10  1  0  0  0  0
  9 34  1  0  0  0  0
  9 35  1  0  0  0  0
 10 36  1  0  0  0  0
 10 37  1  0  0  0  0
 11 12  2  0  0  0  0
 11 38  1  0  0  0  0
 12 39  1  0  0  0  0
 12 40  1  0  0  0  0
 13 14  2  0  0  0  0
 13 22  1  0  0  0  0
 14 15  1  0  0  0  0
 14 41  1  0  0  0  0
 15 16  2  0  0  0  0
 15 42  1  0  0  0  0
 16 17  1  0  0  0  0
 17 18  2  0  0  0  0
 17 22  1  0  0  0  0
 18 19  1  0  0  0  0
 18 43  1  0  0  0  0
 19 20  2  0  0  0  0
 19 23  1  0  0  0  0
 20 21  1  0  0  0  0
 20 44  1  0  0  0  0
 21 22  2  0  0  0  0
 21 45  1  0  0  0  0
 23 24  1  0  0  0  0
 24 46  1  0  0  0  0
 24 47  1  0  0  0  0
 24 48  1  0  0  0  0
 27 51  1  0  0  0  0
 28 54  1  0  0  0  0
 33 49  1  0  0  0  0
 37 51  1  0  0  0  0
 49 50  1  0  0  0  0
 51 52  1  0  0  0  0
 52 53  1  0  0  0  0
 54 55  1  0  0  0  0
 55 56  1  0  0  0  0
M  END
$$$$
