Title Card Required
 OpenBabel03192317493D

 48 51  0  0  1  0  0  0  0  0999 V2000
   -0.9400   -2.4002   -1.5153 O   0  0  0  0  0  0  0  0  0  0  0  0
   -0.2377   -1.2686   -1.0690 C   0  0  1  0  0  0  0  0  0  0  0  0
   -1.8695    0.5955   -1.2403 N   0  0  2  0  0  0  0  0  0  0  0  0
   -1.1195   -0.2501   -0.3083 C   0  0  1  0  0  0  0  0  0  0  0  0
   -2.0663   -0.8926    0.7475 C   0  0  0  0  0  0  0  0  0  0  0  0
   -3.5060   -0.4817    0.4098 C   0  0  1  0  0  0  0  0  0  0  0  0
   -3.6436    1.0576    0.4651 C   0  0  2  0  0  0  0  0  0  0  0  0
   -2.5447    1.6410   -0.4810 C   0  0  0  0  0  0  0  0  0  0  0  0
   -3.8160   -0.9345   -1.0235 C   0  0  0  0  0  0  0  0  0  0  0  0
   -2.8688   -0.1706   -1.9884 C   0  0  0  0  0  0  0  0  0  0  0  0
   -3.5488    1.6128    1.8556 C   0  0  0  0  0  0  0  0  0  0  0  0
   -4.5378    2.2325    2.4987 C   0  0  0  0  0  0  0  0  0  0  0  0
    3.2349   -2.2966    1.3432 N   0  0  0  0  0  0  0  0  0  0  0  0
    2.2867   -3.1589    1.1008 C   0  0  0  0  0  0  0  0  0  0  0  0
    1.1434   -2.8754    0.3040 C   0  0  0  0  0  0  0  0  0  0  0  0
    0.9850   -1.6295   -0.2468 C   0  0  0  0  0  0  0  0  0  0  0  0
    2.0198   -0.6614   -0.0225 C   0  0  0  0  0  0  0  0  0  0  0  0
    2.0010    0.6408   -0.5771 C   0  0  0  0  0  0  0  0  0  0  0  0
    3.0339    1.5275   -0.3338 C   0  0  0  0  0  0  0  0  0  0  0  0
    4.1303    1.1379    0.4816 C   0  0  0  0  0  0  0  0  0  0  0  0
    4.1645   -0.1247    1.0224 C   0  0  0  0  0  0  0  0  0  0  0  0
    3.1240   -1.0582    0.7879 C   0  0  0  0  0  0  0  0  0  0  0  0
    2.9348    2.7480   -0.9036 O   0  0  0  0  0  0  0  0  0  0  0  0
    3.9685    3.6771   -0.7090 C   0  0  0  0  0  0  0  0  0  0  0  0
   -1.3794   -2.8114   -0.7632 H   0  0  0  0  0  0  0  0  0  0  0  0
    0.0999   -0.7558   -1.9830 H   0  0  0  0  0  0  0  0  0  0  0  0
   -0.4330    0.4281    0.2161 H   0  0  0  0  0  0  0  0  0  0  0  0
   -2.0013   -1.9942    0.7706 H   0  0  0  0  0  0  0  0  0  0  0  0
   -1.7926   -0.5690    1.7616 H   0  0  0  0  0  0  0  0  0  0  0  0
   -4.2100   -0.9356    1.1224 H   0  0  0  0  0  0  0  0  0  0  0  0
   -4.6420    1.3092    0.0715 H   0  0  0  0  0  0  0  0  0  0  0  0
   -2.9847    2.3622   -1.1849 H   0  0  0  0  0  0  0  0  0  0  0  0
   -1.7862    2.1839    0.1046 H   0  0  0  0  0  0  0  0  0  0  0  0
   -3.6643   -2.0216   -1.1111 H   0  0  0  0  0  0  0  0  0  0  0  0
   -4.8718   -0.7357   -1.2609 H   0  0  0  0  0  0  0  0  0  0  0  0
   -3.4295    0.5464   -2.6063 H   0  0  0  0  0  0  0  0  0  0  0  0
   -2.3609   -0.8641   -2.6683 H   0  0  0  0  0  0  0  0  0  0  0  0
   -2.5806    1.4996    2.3606 H   0  0  0  0  0  0  0  0  0  0  0  0
   -4.4085    2.6191    3.5112 H   0  0  0  0  0  0  0  0  0  0  0  0
   -5.5147    2.3758    2.0279 H   0  0  0  0  0  0  0  0  0  0  0  0
    2.3953   -4.1546    1.5445 H   0  0  0  0  0  0  0  0  0  0  0  0
    0.4114   -3.6627    0.1217 H   0  0  0  0  0  0  0  0  0  0  0  0
    1.1800    0.9851   -1.2083 H   0  0  0  0  0  0  0  0  0  0  0  0
    4.9482    1.8290    0.6805 H   0  0  0  0  0  0  0  0  0  0  0  0
    4.9962   -0.4521    1.6469 H   0  0  0  0  0  0  0  0  0  0  0  0
    4.0876    3.9365    0.3561 H   0  0  0  0  0  0  0  0  0  0  0  0
    4.9300    3.3024   -1.0973 H   0  0  0  0  0  0  0  0  0  0  0  0
    3.6871    4.5778   -1.2653 H   0  0  0  0  0  0  0  0  0  0  0  0
  1  2  1  0  0  0  0
  1 25  1  0  0  0  0
  2  4  1  0  0  0  0
  2 16  1  0  0  0  0
  2 26  1  6  0  0  0
  3  4  1  0  0  0  0
  3  8  1  1  0  0  0
  3 10  1  0  0  0  0
  4  5  1  0  0  0  0
  4 27  1  1  0  0  0
  5  6  1  0  0  0  0
  5 28  1  0  0  0  0
  5 29  1  0  0  0  0
  6  7  1  0  0  0  0
  6  9  1  0  0  0  0
  6 30  1  1  0  0  0
  7  8  1  0  0  0  0
  7 11  1  0  0  0  0
  7 31  1  6  0  0  0
  8 32  1  0  0  0  0
  8 33  1  0  0  0  0
  9 10  1  0  0  0  0
  9 34  1  0  0  0  0
  9 35  1  0  0  0  0
 10 36  1  0  0  0  0
 10 37  1  0  0  0  0
 11 12  2  0  0  0  0
 11 38  1  0  0  0  0
 12 39  1  0  0  0  0
 12 40  1  0  0  0  0
 13 14  2  0  0  0  0
 13 22  1  0  0  0  0
 14 15  1  0  0  0  0
 14 41  1  0  0  0  0
 15 16  2  0  0  0  0
 15 42  1  0  0  0  0
 16 17  1  0  0  0  0
 17 18  2  0  0  0  0
 17 22  1  0  0  0  0
 18 19  1  0  0  0  0
 18 43  1  0  0  0  0
 19 20  2  0  0  0  0
 19 23  1  0  0  0  0
 20 21  1  0  0  0  0
 20 44  1  0  0  0  0
 21 22  2  0  0  0  0
 21 45  1  0  0  0  0
 23 24  1  0  0  0  0
 24 46  1  0  0  0  0
 24 47  1  0  0  0  0
 24 48  1  0  0  0  0
M  END
$$$$
