Title Card Required
 OpenBabel03192317483D

 76 80  0  0  1  0  0  0  0  0999 V2000
    0.2519    2.0589   -0.4623 N   0  0  0  0  0  0  0  0  0  0  0  0
    0.7459    0.8112    0.1346 C   0  0  1  0  0  0  0  0  0  0  0  0
   -0.3943   -0.1815   -0.1731 C   0  0  0  0  0  0  0  0  0  0  0  0
   -1.6377    0.6951   -0.3662 C   0  0  1  0  0  0  0  0  0  0  0  0
   -1.0555    1.9167   -1.0850 C   0  0  0  0  0  0  0  0  0  0  0  0
    2.1106    0.4012   -0.4339 C   0  0  0  0  0  0  0  0  0  0  0  0
    3.1071   -0.6414    0.7527 P   0  0  0  0  0  0  0  0  0  0  0  0
    1.9393   -2.0555    0.9597 C   0  0  0  0  0  0  0  0  0  0  0  0
    1.5681   -2.9016   -0.0944 C   0  0  0  0  0  0  0  0  0  0  0  0
    0.5645   -3.8497    0.0836 C   0  0  0  0  0  0  0  0  0  0  0  0
   -0.0744   -3.9700    1.3205 C   0  0  0  0  0  0  0  0  0  0  0  0
    0.3004   -3.1474    2.3799 C   0  0  0  0  0  0  0  0  0  0  0  0
    1.3091   -2.1980    2.2003 C   0  0  0  0  0  0  0  0  0  0  0  0
    4.3414   -1.3661   -0.4087 C   0  0  0  0  0  0  0  0  0  0  0  0
    4.7697   -0.6872   -1.5562 C   0  0  0  0  0  0  0  0  0  0  0  0
    5.7663   -1.2242   -2.3723 C   0  0  0  0  0  0  0  0  0  0  0  0
    6.3496   -2.4479   -2.0551 C   0  0  0  0  0  0  0  0  0  0  0  0
    5.9347   -3.1311   -0.9107 C   0  0  0  0  0  0  0  0  0  0  0  0
    4.9452   -2.5925   -0.0926 C   0  0  0  0  0  0  0  0  0  0  0  0
   -2.9506   -0.1959   -1.3391 P   0  0  0  0  0  0  0  0  0  0  0  0
   -3.2058   -1.6785   -0.2595 C   0  0  0  0  0  0  0  0  0  0  0  0
   -3.5611   -1.5731    1.0923 C   0  0  0  0  0  0  0  0  0  0  0  0
   -3.7772   -2.7155    1.8577 C   0  0  0  0  0  0  0  0  0  0  0  0
   -3.6585   -3.9799    1.2757 C   0  0  0  0  0  0  0  0  0  0  0  0
   -3.3040   -4.0964   -0.0660 C   0  0  0  0  0  0  0  0  0  0  0  0
   -3.0710   -2.9489   -0.8276 C   0  0  0  0  0  0  0  0  0  0  0  0
   -4.4754    0.7469   -0.8979 C   0  0  0  0  0  0  0  0  0  0  0  0
   -5.7053    0.1788   -1.2639 C   0  0  0  0  0  0  0  0  0  0  0  0
   -6.9025    0.8370   -1.0016 C   0  0  0  0  0  0  0  0  0  0  0  0
   -6.8925    2.0870   -0.3796 C   0  0  0  0  0  0  0  0  0  0  0  0
   -5.6786    2.6657   -0.0213 C   0  0  0  0  0  0  0  0  0  0  0  0
   -4.4773    1.9996   -0.2758 C   0  0  0  0  0  0  0  0  0  0  0  0
    0.7550    3.2935   -0.1851 C   0  0  0  0  0  0  0  0  0  0  0  0
    0.2751    4.3315   -0.5825 O   0  0  0  0  0  0  0  0  0  0  0  0
    1.8493    3.1871    0.5899 O   0  0  0  0  0  0  0  0  0  0  0  0
    2.6130    4.3548    0.9820 C   0  0  0  0  0  0  0  0  0  0  0  0
    1.7502    5.2927    1.8216 C   0  0  0  0  0  0  0  0  0  0  0  0
    3.7371    3.7600    1.8206 C   0  0  0  0  0  0  0  0  0  0  0  0
    3.1722    5.0501   -0.2558 C   0  0  0  0  0  0  0  0  0  0  0  0
    0.8407    0.9600    1.2250 H   0  0  0  0  0  0  0  0  0  0  0  0
   -0.1682   -0.7175   -1.1112 H   0  0  0  0  0  0  0  0  0  0  0  0
   -0.5276   -0.9406    0.6088 H   0  0  0  0  0  0  0  0  0  0  0  0
   -2.0243    1.0002    0.6210 H   0  0  0  0  0  0  0  0  0  0  0  0
   -0.9656    1.7223   -2.1687 H   0  0  0  0  0  0  0  0  0  0  0  0
   -1.6240    2.8470   -0.9584 H   0  0  0  0  0  0  0  0  0  0  0  0
    1.9855   -0.1125   -1.4011 H   0  0  0  0  0  0  0  0  0  0  0  0
    2.7011    1.3130   -0.5983 H   0  0  0  0  0  0  0  0  0  0  0  0
    2.0628   -2.8053   -1.0651 H   0  0  0  0  0  0  0  0  0  0  0  0
    0.2716   -4.4959   -0.7460 H   0  0  0  0  0  0  0  0  0  0  0  0
   -0.8645   -4.7092    1.4561 H   0  0  0  0  0  0  0  0  0  0  0  0
   -0.1925   -3.2445    3.3488 H   0  0  0  0  0  0  0  0  0  0  0  0
    1.6021   -1.5472    3.0280 H   0  0  0  0  0  0  0  0  0  0  0  0
    4.3268    0.2726   -1.8274 H   0  0  0  0  0  0  0  0  0  0  0  0
    6.0825   -0.6804   -3.2641 H   0  0  0  0  0  0  0  0  0  0  0  0
    7.1250   -2.8695   -2.6962 H   0  0  0  0  0  0  0  0  0  0  0  0
    6.3865   -4.0905   -0.6530 H   0  0  0  0  0  0  0  0  0  0  0  0
    4.6271   -3.1377    0.8001 H   0  0  0  0  0  0  0  0  0  0  0  0
   -3.6925   -0.5850    1.5420 H   0  0  0  0  0  0  0  0  0  0  0  0
   -4.0574   -2.6214    2.9082 H   0  0  0  0  0  0  0  0  0  0  0  0
   -3.8471   -4.8748    1.8719 H   0  0  0  0  0  0  0  0  0  0  0  0
   -3.2094   -5.0824   -0.5250 H   0  0  0  0  0  0  0  0  0  0  0  0
   -2.7953   -3.0375   -1.8812 H   0  0  0  0  0  0  0  0  0  0  0  0
   -5.7226   -0.7980   -1.7554 H   0  0  0  0  0  0  0  0  0  0  0  0
   -7.8486    0.3746   -1.2877 H   0  0  0  0  0  0  0  0  0  0  0  0
   -7.8299    2.6075   -0.1781 H   0  0  0  0  0  0  0  0  0  0  0  0
   -5.6589    3.6432    0.4635 H   0  0  0  0  0  0  0  0  0  0  0  0
   -3.5410    2.4760    0.0178 H   0  0  0  0  0  0  0  0  0  0  0  0
    1.3103    4.7421    2.6659 H   0  0  0  0  0  0  0  0  0  0  0  0
    2.3772    6.1004    2.2254 H   0  0  0  0  0  0  0  0  0  0  0  0
    0.9457    5.7271    1.2173 H   0  0  0  0  0  0  0  0  0  0  0  0
    4.3243    3.0479    1.2232 H   0  0  0  0  0  0  0  0  0  0  0  0
    4.4042    4.5553    2.1807 H   0  0  0  0  0  0  0  0  0  0  0  0
    3.3231    3.2227    2.6852 H   0  0  0  0  0  0  0  0  0  0  0  0
    3.7531    4.3364   -0.8587 H   0  0  0  0  0  0  0  0  0  0  0  0
    2.3634    5.4643   -0.8690 H   0  0  0  0  0  0  0  0  0  0  0  0
    3.8426    5.8650    0.0526 H   0  0  0  0  0  0  0  0  0  0  0  0
  1  2  1  0  0  0  0
  1  5  1  0  0  0  0
  1 33  1  0  0  0  0
  2  3  1  0  0  0  0
  2  6  1  0  0  0  0
  2 40  1  1  0  0  0
  3  4  1  0  0  0  0
  3 41  1  0  0  0  0
  3 42  1  0  0  0  0
  4  5  1  0  0  0  0
  4 20  1  0  0  0  0
  4 43  1  1  0  0  0
  5 44  1  0  0  0  0
  5 45  1  0  0  0  0
  6  7  1  0  0  0  0
  6 46  1  0  0  0  0
  6 47  1  0  0  0  0
  7  8  1  0  0  0  0
  7 14  1  0  0  0  0
  8  9  2  0  0  0  0
  8 13  1  0  0  0  0
  9 10  1  0  0  0  0
  9 48  1  0  0  0  0
 10 11  2  0  0  0  0
 10 49  1  0  0  0  0
 11 12  1  0  0  0  0
 11 50  1  0  0  0  0
 12 13  2  0  0  0  0
 12 51  1  0  0  0  0
 13 52  1  0  0  0  0
 14 15  2  0  0  0  0
 14 19  1  0  0  0  0
 15 16  1  0  0  0  0
 15 53  1  0  0  0  0
 16 17  2  0  0  0  0
 16 54  1  0  0  0  0
 17 18  1  0  0  0  0
 17 55  1  0  0  0  0
 18 19  2  0  0  0  0
 18 56  1  0  0  0  0
 19 57  1  0  0  0  0
 20 21  1  0  0  0  0
 20 27  1  0  0  0  0
 21 22  2  0  0  0  0
 21 26  1  0  0  0  0
 22 23  1  0  0  0  0
 22 58  1  0  0  0  0
 23 24  2  0  0  0  0
 23 59  1  0  0  0  0
 24 25  1  0  0  0  0
 24 60  1  0  0  0  0
 25 26  2  0  0  0  0
 25 61  1  0  0  0  0
 26 62  1  0  0  0  0
 27 28  2  0  0  0  0
 27 32  1  0  0  0  0
 28 29  1  0  0  0  0
 28 63  1  0  0  0  0
 29 30  2  0  0  0  0
 29 64  1  0  0  0  0
 30 31  1  0  0  0  0
 30 65  1  0  0  0  0
 31 32  2  0  0  0  0
 31 66  1  0  0  0  0
 32 67  1  0  0  0  0
 33 34  2  0  0  0  0
 33 35  1  0  0  0  0
 35 36  1  0  0  0  0
 36 37  1  0  0  0  0
 36 38  1  0  0  0  0
 36 39  1  0  0  0  0
 37 68  1  0  0  0  0
 37 69  1  0  0  0  0
 37 70  1  0  0  0  0
 38 71  1  0  0  0  0
 38 72  1  0  0  0  0
 38 73  1  0  0  0  0
 39 74  1  0  0  0  0
 39 75  1  0  0  0  0
 39 76  1  0  0  0  0
M  END
$$$$
