Title Card Required
 OpenBabel03192317543D

 34 34  0  0  1  0  0  0  0  0999 V2000
    3.0236   -0.9264    0.0441 C   0  0  1  0  0  0  0  0  0  0  0  0
    1.9376   -0.8618   -1.0283 C   0  0  0  0  0  0  0  0  0  0  0  0
    0.8458   -0.2608   -0.2763 N   0  0  0  0  0  0  0  0  0  0  0  0
    1.3314    0.7056    0.7121 C   0  0  1  0  0  0  0  0  0  0  0  0
    2.8515    0.4216    0.7539 C   0  0  0  0  0  0  0  0  0  0  0  0
    1.0278    2.1402    0.3016 C   0  0  0  0  0  0  0  0  0  0  0  0
    1.6342    2.3688   -0.9467 O   0  0  0  0  0  0  0  0  0  0  0  0
    2.8119   -2.0109    0.9150 O   0  0  0  0  0  0  0  0  0  0  0  0
   -1.2673    0.1122    0.3074 O   0  0  0  0  0  0  0  0  0  0  0  0
   -2.7059   -0.0480    0.2361 C   0  0  0  0  0  0  0  0  0  0  0  0
   -3.2118    0.8799    1.3339 C   0  0  0  0  0  0  0  0  0  0  0  0
   -3.2228    0.4057   -1.1266 C   0  0  0  0  0  0  0  0  0  0  0  0
   -3.0906   -1.4935    0.5394 C   0  0  0  0  0  0  0  0  0  0  0  0
   -0.4553   -0.5555   -0.5374 C   0  0  0  0  0  0  0  0  0  0  0  0
   -0.8218   -1.3243   -1.3959 O   0  0  0  0  0  0  0  0  0  0  0  0
    4.0288   -1.0522   -0.3792 H   0  0  0  0  0  0  0  0  0  0  0  0
    2.2365   -0.2192   -1.8727 H   0  0  0  0  0  0  0  0  0  0  0  0
    1.6450   -1.8505   -1.4023 H   0  0  0  0  0  0  0  0  0  0  0  0
    0.8423    0.5177    1.6804 H   0  0  0  0  0  0  0  0  0  0  0  0
    3.2474    0.3772    1.7763 H   0  0  0  0  0  0  0  0  0  0  0  0
    3.3783    1.2073    0.1950 H   0  0  0  0  0  0  0  0  0  0  0  0
   -0.0662    2.2701    0.2548 H   0  0  0  0  0  0  0  0  0  0  0  0
    1.4245    2.8176    1.0825 H   0  0  0  0  0  0  0  0  0  0  0  0
    1.3632    3.2298   -1.2777 H   0  0  0  0  0  0  0  0  0  0  0  0
    1.8754   -2.0118    1.1511 H   0  0  0  0  0  0  0  0  0  0  0  0
   -2.9089    1.9166    1.1282 H   0  0  0  0  0  0  0  0  0  0  0  0
   -4.3083    0.8386    1.3888 H   0  0  0  0  0  0  0  0  0  0  0  0
   -2.7977    0.5805    2.3069 H   0  0  0  0  0  0  0  0  0  0  0  0
   -2.8694   -0.2606   -1.9215 H   0  0  0  0  0  0  0  0  0  0  0  0
   -4.3222    0.4053   -1.1178 H   0  0  0  0  0  0  0  0  0  0  0  0
   -2.8804    1.4299   -1.3362 H   0  0  0  0  0  0  0  0  0  0  0  0
   -2.7258   -2.1675   -0.2439 H   0  0  0  0  0  0  0  0  0  0  0  0
   -2.6663   -1.8006    1.5067 H   0  0  0  0  0  0  0  0  0  0  0  0
   -4.1852   -1.5753    0.6023 H   0  0  0  0  0  0  0  0  0  0  0  0
  1  2  1  0  0  0  0
  1  5  1  0  0  0  0
  1  8  1  0  0  0  0
  1 16  1  6  0  0  0
  2  3  1  0  0  0  0
  2 17  1  0  0  0  0
  2 18  1  0  0  0  0
  3  4  1  0  0  0  0
  3 14  1  0  0  0  0
  4  5  1  0  0  0  0
  4  6  1  0  0  0  0
  4 19  1  1  0  0  0
  5 20  1  0  0  0  0
  5 21  1  0  0  0  0
  6  7  1  0  0  0  0
  6 22  1  0  0  0  0
  6 23  1  0  0  0  0
  7 24  1  0  0  0  0
  8 25  1  0  0  0  0
  9 10  1  0  0  0  0
  9 14  1  0  0  0  0
 10 11  1  0  0  0  0
 10 12  1  0  0  0  0
 10 13  1  0  0  0  0
 11 26  1  0  0  0  0
 11 27  1  0  0  0  0
 11 28  1  0  0  0  0
 12 29  1  0  0  0  0
 12 30  1  0  0  0  0
 12 31  1  0  0  0  0
 13 32  1  0  0  0  0
 13 33  1  0  0  0  0
 13 34  1  0  0  0  0
 14 15  2  0  0  0  0
M  END
$$$$
