Title Card Required
 OpenBabel03192317493D

 76 81  0  0  0  0  0  0  0  0999 V2000
    1.9479    1.4536   -2.3032 C   0  0  0  0  0  0  0  0  0  0  0  0
    0.7392    1.4537   -1.5873 C   0  0  0  0  0  0  0  0  0  0  0  0
    0.6331    0.7135   -0.3959 C   0  0  0  0  0  0  0  0  0  0  0  0
    1.7274   -0.0204    0.0773 C   0  0  0  0  0  0  0  0  0  0  0  0
    2.9410   -0.0367   -0.6359 C   0  0  0  0  0  0  0  0  0  0  0  0
    3.0216    0.7120   -1.8100 C   0  0  0  0  0  0  0  0  0  0  0  0
    2.1151    2.2416   -3.5872 C   0  0  0  0  0  0  0  0  0  0  0  0
    0.7825    2.6139   -4.2265 C   0  0  0  0  0  0  0  0  0  0  0  0
   -0.1296    3.2393   -3.1771 C   0  0  0  0  0  0  0  0  0  0  0  0
   -0.4645    2.2247   -2.0875 C   0  0  0  0  0  0  0  0  0  0  0  0
   -0.6330    0.7134    0.3959 C   0  0  0  0  0  0  0  0  0  0  0  0
   -0.7391    1.4532    1.5875 C   0  0  0  0  0  0  0  0  0  0  0  0
   -1.9478    1.4530    2.3035 C   0  0  0  0  0  0  0  0  0  0  0  0
   -3.0215    0.7116    1.8101 C   0  0  0  0  0  0  0  0  0  0  0  0
   -2.9410   -0.0368    0.6357 C   0  0  0  0  0  0  0  0  0  0  0  0
   -1.7275   -0.0203   -0.0776 C   0  0  0  0  0  0  0  0  0  0  0  0
    0.4647    2.2239    2.0879 C   0  0  0  0  0  0  0  0  0  0  0  0
    0.1300    3.2381    3.1780 C   0  0  0  0  0  0  0  0  0  0  0  0
   -0.7822    2.6124    4.2272 C   0  0  0  0  0  0  0  0  0  0  0  0
   -2.1149    2.2405    3.5877 C   0  0  0  0  0  0  0  0  0  0  0  0
    1.5740   -0.6849    1.2501 O   0  0  0  0  0  0  0  0  0  0  0  0
   -1.5741   -0.6845   -1.2506 O   0  0  0  0  0  0  0  0  0  0  0  0
    4.1092   -0.8203   -0.1527 C   0  0  0  0  0  0  0  0  0  0  0  0
   -4.1093   -0.8202    0.1524 C   0  0  0  0  0  0  0  0  0  0  0  0
    3.9750   -2.1683    0.2121 C   0  0  0  0  0  0  0  0  0  0  0  0
    5.0714   -2.9118    0.6601 C   0  0  0  0  0  0  0  0  0  0  0  0
    6.3172   -2.2840    0.7377 C   0  0  0  0  0  0  0  0  0  0  0  0
    5.3739   -0.2246   -0.0671 C   0  0  0  0  0  0  0  0  0  0  0  0
   -5.3740   -0.2246    0.0674 C   0  0  0  0  0  0  0  0  0  0  0  0
   -6.4873   -0.9446   -0.3713 C   0  0  0  0  0  0  0  0  0  0  0  0
   -6.3174   -2.2836   -0.7380 C   0  0  0  0  0  0  0  0  0  0  0  0
   -5.0716   -2.9114   -0.6609 C   0  0  0  0  0  0  0  0  0  0  0  0
   -3.9751   -2.1680   -0.2130 C   0  0  0  0  0  0  0  0  0  0  0  0
    6.4871   -0.9448    0.3715 C   0  0  0  0  0  0  0  0  0  0  0  0
   -7.8478   -0.3007   -0.4369 C   0  0  0  0  0  0  0  0  0  0  0  0
   -4.9223   -4.3685   -1.0144 C   0  0  0  0  0  0  0  0  0  0  0  0
    7.8476   -0.3009    0.4378 C   0  0  0  0  0  0  0  0  0  0  0  0
    4.9220   -4.3691    1.0128 C   0  0  0  0  0  0  0  0  0  0  0  0
    3.9580    0.6918   -2.3747 H   0  0  0  0  0  0  0  0  0  0  0  0
    2.6764    3.1676   -3.3693 H   0  0  0  0  0  0  0  0  0  0  0  0
    2.7380    1.6644   -4.2875 H   0  0  0  0  0  0  0  0  0  0  0  0
    0.3004    1.7097   -4.6356 H   0  0  0  0  0  0  0  0  0  0  0  0
    0.9464    3.3020   -5.0689 H   0  0  0  0  0  0  0  0  0  0  0  0
   -1.0581    3.6150   -3.6313 H   0  0  0  0  0  0  0  0  0  0  0  0
    0.3819    4.1103   -2.7322 H   0  0  0  0  0  0  0  0  0  0  0  0
   -1.1918    1.4900   -2.4739 H   0  0  0  0  0  0  0  0  0  0  0  0
   -0.9613    2.7157   -1.2367 H   0  0  0  0  0  0  0  0  0  0  0  0
   -3.9579    0.6913    2.3748 H   0  0  0  0  0  0  0  0  0  0  0  0
    1.1920    1.4890    2.4740 H   0  0  0  0  0  0  0  0  0  0  0  0
    0.9614    2.7153    1.2374 H   0  0  0  0  0  0  0  0  0  0  0  0
    1.0586    3.6134    3.6324 H   0  0  0  0  0  0  0  0  0  0  0  0
   -0.3813    4.1093    2.7336 H   0  0  0  0  0  0  0  0  0  0  0  0
   -0.3002    1.7079    4.6358 H   0  0  0  0  0  0  0  0  0  0  0  0
   -0.9459    3.3001    5.0699 H   0  0  0  0  0  0  0  0  0  0  0  0
   -2.6760    3.1667    3.3701 H   0  0  0  0  0  0  0  0  0  0  0  0
   -2.7379    1.6632    4.2878 H   0  0  0  0  0  0  0  0  0  0  0  0
    2.4239   -1.0573    1.5195 H   0  0  0  0  0  0  0  0  0  0  0  0
   -2.4240   -1.0565   -1.5201 H   0  0  0  0  0  0  0  0  0  0  0  0
    2.9981   -2.6521    0.1221 H   0  0  0  0  0  0  0  0  0  0  0  0
    7.1806   -2.8536    1.0938 H   0  0  0  0  0  0  0  0  0  0  0  0
    5.4809    0.8298   -0.3330 H   0  0  0  0  0  0  0  0  0  0  0  0
   -5.4810    0.8298    0.3337 H   0  0  0  0  0  0  0  0  0  0  0  0
   -7.1809   -2.8532   -1.0940 H   0  0  0  0  0  0  0  0  0  0  0  0
   -2.9982   -2.6518   -0.1234 H   0  0  0  0  0  0  0  0  0  0  0  0
   -8.3992   -0.6242   -1.3306 H   0  0  0  0  0  0  0  0  0  0  0  0
   -8.4518   -0.5782    0.4409 H   0  0  0  0  0  0  0  0  0  0  0  0
   -7.7704    0.7942   -0.4560 H   0  0  0  0  0  0  0  0  0  0  0  0
   -5.2214   -5.0054   -0.1676 H   0  0  0  0  0  0  0  0  0  0  0  0
   -5.5566   -4.6379   -1.8700 H   0  0  0  0  0  0  0  0  0  0  0  0
   -3.8815   -4.6145   -1.2632 H   0  0  0  0  0  0  0  0  0  0  0  0
    8.3983   -0.6240    1.3320 H   0  0  0  0  0  0  0  0  0  0  0  0
    8.4521   -0.5788   -0.4395 H   0  0  0  0  0  0  0  0  0  0  0  0
    7.7702    0.7940    0.4564 H   0  0  0  0  0  0  0  0  0  0  0  0
    5.2185   -5.0054    0.1646 H   0  0  0  0  0  0  0  0  0  0  0  0
    5.5585   -4.6396    1.8664 H   0  0  0  0  0  0  0  0  0  0  0  0
    3.8818   -4.6146    1.2642 H   0  0  0  0  0  0  0  0  0  0  0  0
  1  2  2  0  0  0  0
  1  6  1  0  0  0  0
  1  7  1  0  0  0  0
  2  3  1  0  0  0  0
  2 10  1  0  0  0  0
  3  4  2  0  0  0  0
  3 11  1  0  0  0  0
  4  5  1  0  0  0  0
  4 21  1  0  0  0  0
  5  6  2  0  0  0  0
  5 23  1  0  0  0  0
  6 39  1  0  0  0  0
  7  8  1  0  0  0  0
  7 40  1  0  0  0  0
  7 41  1  0  0  0  0
  8  9  1  0  0  0  0
  8 42  1  0  0  0  0
  8 43  1  0  0  0  0
  9 10  1  0  0  0  0
  9 44  1  0  0  0  0
  9 45  1  0  0  0  0
 10 46  1  0  0  0  0
 10 47  1  0  0  0  0
 11 12  2  0  0  0  0
 11 16  1  0  0  0  0
 12 13  1  0  0  0  0
 12 17  1  0  0  0  0
 13 14  2  0  0  0  0
 13 20  1  0  0  0  0
 14 15  1  0  0  0  0
 14 48  1  0  0  0  0
 15 16  2  0  0  0  0
 15 24  1  0  0  0  0
 16 22  1  0  0  0  0
 17 18  1  0  0  0  0
 17 49  1  0  0  0  0
 17 50  1  0  0  0  0
 18 19  1  0  0  0  0
 18 51  1  0  0  0  0
 18 52  1  0  0  0  0
 19 20  1  0  0  0  0
 19 53  1  0  0  0  0
 19 54  1  0  0  0  0
 20 55  1  0  0  0  0
 20 56  1  0  0  0  0
 21 57  1  0  0  0  0
 22 58  1  0  0  0  0
 23 25  2  0  0  0  0
 23 28  1  0  0  0  0
 24 29  2  0  0  0  0
 24 33  1  0  0  0  0
 25 26  1  0  0  0  0
 25 59  1  0  0  0  0
 26 27  2  0  0  0  0
 26 38  1  0  0  0  0
 27 34  1  0  0  0  0
 27 60  1  0  0  0  0
 28 34  2  0  0  0  0
 28 61  1  0  0  0  0
 29 30  1  0  0  0  0
 29 62  1  0  0  0  0
 30 31  2  0  0  0  0
 30 35  1  0  0  0  0
 31 32  1  0  0  0  0
 31 63  1  0  0  0  0
 32 33  2  0  0  0  0
 32 36  1  0  0  0  0
 33 64  1  0  0  0  0
 34 37  1  0  0  0  0
 35 65  1  0  0  0  0
 35 66  1  0  0  0  0
 35 67  1  0  0  0  0
 36 68  1  0  0  0  0
 36 69  1  0  0  0  0
 36 70  1  0  0  0  0
 37 71  1  0  0  0  0
 37 72  1  0  0  0  0
 37 73  1  0  0  0  0
 38 74  1  0  0  0  0
 38 75  1  0  0  0  0
 38 76  1  0  0  0  0
M  END
$$$$
