Title Card Required
 OpenBabel03192317463D

 40 43  0  0  1  0  0  0  0  0999 V2000
   -0.7446   -1.1139    0.8009 C   0  0  2  0  0  0  0  0  0  0  0  0
   -1.7574   -2.1426    0.6092 N   0  0  0  0  0  0  0  0  0  0  0  0
   -3.1181   -1.7016    0.8479 C   0  0  0  0  0  0  0  0  0  0  0  0
   -3.4970   -0.5654   -0.0991 C   0  0  0  0  0  0  0  0  0  0  0  0
   -2.5130    0.5693    0.0601 C   0  0  0  0  0  0  0  0  0  0  0  0
   -2.8956    1.8864   -0.2223 C   0  0  0  0  0  0  0  0  0  0  0  0
   -2.0296    2.9519   -0.0031 C   0  0  0  0  0  0  0  0  0  0  0  0
   -0.7723    2.7085    0.5514 C   0  0  0  0  0  0  0  0  0  0  0  0
   -0.3839    1.4047    0.8417 C   0  0  0  0  0  0  0  0  0  0  0  0
   -1.2231    0.3164    0.5563 C   0  0  0  0  0  0  0  0  0  0  0  0
    0.4545   -1.5451   -0.0993 C   0  0  1  0  0  0  0  0  0  0  0  0
    0.0530   -1.5867   -1.5025 N   0  0  0  0  0  0  0  0  0  0  0  0
    0.2559   -0.3390   -2.2323 C   0  0  0  0  0  0  0  0  0  0  0  0
    1.7078    0.1304   -2.1990 C   0  0  0  0  0  0  0  0  0  0  0  0
    2.2958    0.0619   -0.8080 C   0  0  0  0  0  0  0  0  0  0  0  0
    3.4401    0.8048   -0.4889 C   0  0  0  0  0  0  0  0  0  0  0  0
    4.0261    0.7248    0.7693 C   0  0  0  0  0  0  0  0  0  0  0  0
    3.4775   -0.1243    1.7329 C   0  0  0  0  0  0  0  0  0  0  0  0
    2.3395   -0.8619    1.4273 C   0  0  0  0  0  0  0  0  0  0  0  0
    1.7296   -0.7677    0.1698 C   0  0  0  0  0  0  0  0  0  0  0  0
   -0.3786   -1.1582    1.8434 H   0  0  0  0  0  0  0  0  0  0  0  0
   -1.6877   -2.4296   -0.3684 H   0  0  0  0  0  0  0  0  0  0  0  0
   -3.7974   -2.5584    0.7285 H   0  0  0  0  0  0  0  0  0  0  0  0
   -3.2093   -1.3611    1.8928 H   0  0  0  0  0  0  0  0  0  0  0  0
   -3.4811   -0.9475   -1.1350 H   0  0  0  0  0  0  0  0  0  0  0  0
   -4.5178   -0.1977    0.0888 H   0  0  0  0  0  0  0  0  0  0  0  0
   -3.9007    2.0700   -0.6105 H   0  0  0  0  0  0  0  0  0  0  0  0
   -2.3434    3.9709   -0.2352 H   0  0  0  0  0  0  0  0  0  0  0  0
   -0.0945    3.5363    0.7659 H   0  0  0  0  0  0  0  0  0  0  0  0
    0.5947    1.2300    1.2913 H   0  0  0  0  0  0  0  0  0  0  0  0
    0.6282   -2.5894    0.2078 H   0  0  0  0  0  0  0  0  0  0  0  0
    0.5564   -2.3357   -1.9719 H   0  0  0  0  0  0  0  0  0  0  0  0
   -0.0763   -0.4877   -3.2698 H   0  0  0  0  0  0  0  0  0  0  0  0
   -0.3961    0.4330   -1.8007 H   0  0  0  0  0  0  0  0  0  0  0  0
    2.3159   -0.5068   -2.8662 H   0  0  0  0  0  0  0  0  0  0  0  0
    1.7916    1.1558   -2.5906 H   0  0  0  0  0  0  0  0  0  0  0  0
    3.8721    1.4603   -1.2492 H   0  0  0  0  0  0  0  0  0  0  0  0
    4.9139    1.3162    0.9987 H   0  0  0  0  0  0  0  0  0  0  0  0
    3.9377   -0.2107    2.7185 H   0  0  0  0  0  0  0  0  0  0  0  0
    1.9063   -1.5254    2.1807 H   0  0  0  0  0  0  0  0  0  0  0  0
  1  2  1  0  0  0  0
  1 10  1  0  0  0  0
  1 11  1  0  0  0  0
  1 21  1  1  0  0  0
  2  3  1  0  0  0  0
  2 22  1  0  0  0  0
  3  4  1  0  0  0  0
  3 23  1  0  0  0  0
  3 24  1  0  0  0  0
  4  5  1  0  0  0  0
  4 25  1  0  0  0  0
  4 26  1  0  0  0  0
  5  6  2  0  0  0  0
  5 10  1  0  0  0  0
  6  7  1  0  0  0  0
  6 27  1  0  0  0  0
  7  8  2  0  0  0  0
  7 28  1  0  0  0  0
  8  9  1  0  0  0  0
  8 29  1  0  0  0  0
  9 10  2  0  0  0  0
  9 30  1  0  0  0  0
 11 12  1  0  0  0  0
 11 20  1  0  0  0  0
 11 31  1  1  0  0  0
 12 13  1  0  0  0  0
 12 32  1  0  0  0  0
 13 14  1  0  0  0  0
 13 33  1  0  0  0  0
 13 34  1  0  0  0  0
 14 15  1  0  0  0  0
 14 35  1  0  0  0  0
 14 36  1  0  0  0  0
 15 16  2  0  0  0  0
 15 20  1  0  0  0  0
 16 17  1  0  0  0  0
 16 37  1  0  0  0  0
 17 18  2  0  0  0  0
 17 38  1  0  0  0  0
 18 19  1  0  0  0  0
 18 39  1  0  0  0  0
 19 20  2  0  0  0  0
 19 40  1  0  0  0  0
M  END
$$$$
