Title Card Required
 OpenBabel03192317493D

 51 56  0  0  0  0  0  0  0  0999 V2000
    3.0454   -1.2144    0.1682 N   0  0  0  0  0  0  0  0  0  0  0  0
    3.0365   -0.0756    1.0864 C   0  0  0  0  0  0  0  0  0  0  0  0
    4.0567    0.9789    0.6648 C   0  0  0  0  0  0  0  0  0  0  0  0
    5.4450    0.3645    0.4891 C   0  0  0  0  0  0  0  0  0  0  0  0
    5.3873   -0.8204   -0.4743 C   0  0  0  0  0  0  0  0  0  0  0  0
    4.3554   -1.8372    0.0048 C   0  0  0  0  0  0  0  0  0  0  0  0
    0.9689   -0.9132   -1.5253 O   0  0  0  0  0  0  0  0  0  0  0  0
    1.7071   -1.9948   -0.4641 P   0  0  0  0  0  0  0  0  0  0  0  0
    0.6866   -1.6890    0.8449 O   0  0  0  0  0  0  0  0  0  0  0  0
   -0.6672   -1.7470    0.6582 C   0  0  0  0  0  0  0  0  0  0  0  0
   -1.3261   -0.6834    0.0674 C   0  0  0  0  0  0  0  0  0  0  0  0
   -0.5369    0.5107   -0.3372 C   0  0  0  0  0  0  0  0  0  0  0  0
    0.5711    0.3370   -1.1501 C   0  0  0  0  0  0  0  0  0  0  0  0
   -1.3534   -2.9040    1.1007 C   0  0  0  0  0  0  0  0  0  0  0  0
   -2.7091   -2.9966    0.9341 C   0  0  0  0  0  0  0  0  0  0  0  0
   -3.4314   -1.9588    0.2840 C   0  0  0  0  0  0  0  0  0  0  0  0
   -4.8306   -2.0689    0.0586 C   0  0  0  0  0  0  0  0  0  0  0  0
   -5.5172   -1.0870   -0.6105 C   0  0  0  0  0  0  0  0  0  0  0  0
   -4.8245    0.0488   -1.0952 C   0  0  0  0  0  0  0  0  0  0  0  0
   -3.4742    0.1894   -0.8839 C   0  0  0  0  0  0  0  0  0  0  0  0
   -2.7368   -0.7991   -0.1723 C   0  0  0  0  0  0  0  0  0  0  0  0
    1.3251    1.4363   -1.6298 C   0  0  0  0  0  0  0  0  0  0  0  0
    0.9932    2.7107   -1.2547 C   0  0  0  0  0  0  0  0  0  0  0  0
   -0.0854    2.9425   -0.3580 C   0  0  0  0  0  0  0  0  0  0  0  0
   -0.4042    4.2551    0.0852 C   0  0  0  0  0  0  0  0  0  0  0  0
   -1.4215    4.4698    0.9811 C   0  0  0  0  0  0  0  0  0  0  0  0
   -2.1592    3.3703    1.4828 C   0  0  0  0  0  0  0  0  0  0  0  0
   -1.8829    2.0911    1.0646 C   0  0  0  0  0  0  0  0  0  0  0  0
   -0.8508    1.8358    0.1169 C   0  0  0  0  0  0  0  0  0  0  0  0
    3.2811   -0.4395    2.1033 H   0  0  0  0  0  0  0  0  0  0  0  0
    2.0241    0.3450    1.1332 H   0  0  0  0  0  0  0  0  0  0  0  0
    4.0766    1.7846    1.4141 H   0  0  0  0  0  0  0  0  0  0  0  0
    3.7277    1.4279   -0.2855 H   0  0  0  0  0  0  0  0  0  0  0  0
    6.1611    1.1200    0.1335 H   0  0  0  0  0  0  0  0  0  0  0  0
    5.8143    0.0124    1.4684 H   0  0  0  0  0  0  0  0  0  0  0  0
    5.0963   -0.4705   -1.4786 H   0  0  0  0  0  0  0  0  0  0  0  0
    6.3717   -1.3041   -0.5636 H   0  0  0  0  0  0  0  0  0  0  0  0
    4.2661   -2.6743   -0.7032 H   0  0  0  0  0  0  0  0  0  0  0  0
    4.6875   -2.2588    0.9741 H   0  0  0  0  0  0  0  0  0  0  0  0
   -0.7728   -3.6940    1.5778 H   0  0  0  0  0  0  0  0  0  0  0  0
   -3.2515   -3.8784    1.2809 H   0  0  0  0  0  0  0  0  0  0  0  0
   -5.3472   -2.9595    0.4229 H   0  0  0  0  0  0  0  0  0  0  0  0
   -6.5902   -1.1838   -0.7812 H   0  0  0  0  0  0  0  0  0  0  0  0
   -5.3667    0.8177   -1.6477 H   0  0  0  0  0  0  0  0  0  0  0  0
   -2.9509    1.0638   -1.2713 H   0  0  0  0  0  0  0  0  0  0  0  0
    2.1584    1.2260   -2.3012 H   0  0  0  0  0  0  0  0  0  0  0  0
    1.5643    3.5646   -1.6251 H   0  0  0  0  0  0  0  0  0  0  0  0
    0.1853    5.0906   -0.2982 H   0  0  0  0  0  0  0  0  0  0  0  0
   -1.6555    5.4810    1.3167 H   0  0  0  0  0  0  0  0  0  0  0  0
   -2.9507    3.5386    2.2146 H   0  0  0  0  0  0  0  0  0  0  0  0
   -2.4518    1.2529    1.4670 H   0  0  0  0  0  0  0  0  0  0  0  0
  1  2  1  0  0  0  0
  1  6  1  0  0  0  0
  1  8  1  0  0  0  0
  2  3  1  0  0  0  0
  2 30  1  0  0  0  0
  2 31  1  0  0  0  0
  3  4  1  0  0  0  0
  3 32  1  0  0  0  0
  3 33  1  0  0  0  0
  4  5  1  0  0  0  0
  4 34  1  0  0  0  0
  4 35  1  0  0  0  0
  5  6  1  0  0  0  0
  5 36  1  0  0  0  0
  5 37  1  0  0  0  0
  6 38  1  0  0  0  0
  6 39  1  0  0  0  0
  7  8  1  0  0  0  0
  7 13  1  0  0  0  0
  8  9  1  0  0  0  0
  9 10  1  0  0  0  0
 10 11  2  0  0  0  0
 10 14  1  0  0  0  0
 11 12  1  0  0  0  0
 11 21  1  0  0  0  0
 12 13  2  0  0  0  0
 12 29  1  0  0  0  0
 13 22  1  0  0  0  0
 14 15  2  0  0  0  0
 14 40  1  0  0  0  0
 15 16  1  0  0  0  0
 15 41  1  0  0  0  0
 16 17  2  0  0  0  0
 16 21  1  0  0  0  0
 17 18  1  0  0  0  0
 17 42  1  0  0  0  0
 18 19  2  0  0  0  0
 18 43  1  0  0  0  0
 19 20  1  0  0  0  0
 19 44  1  0  0  0  0
 20 21  2  0  0  0  0
 20 45  1  0  0  0  0
 22 23  2  0  0  0  0
 22 46  1  0  0  0  0
 23 24  1  0  0  0  0
 23 47  1  0  0  0  0
 24 25  2  0  0  0  0
 24 29  1  0  0  0  0
 25 26  1  0  0  0  0
 25 48  1  0  0  0  0
 26 27  2  0  0  0  0
 26 49  1  0  0  0  0
 27 28  1  0  0  0  0
 27 50  1  0  0  0  0
 28 29  2  0  0  0  0
 28 51  1  0  0  0  0
M  END
$$$$
