Title Card Required
 OpenBabel03192317463D

 29 30  0  0  1  0  0  0  0  0999 V2000
   -0.0900    0.0295   -0.0994 N   0  0  0  0  0  0  0  0  0  0  0  0
   -1.4615    0.0728   -0.0282 C   0  0  0  0  0  0  0  0  0  0  0  0
   -2.2398   -1.0840   -0.1058 C   0  0  0  0  0  0  0  0  0  0  0  0
   -3.6219   -0.9978   -0.0656 C   0  0  0  0  0  0  0  0  0  0  0  0
   -4.2606    0.2253    0.0606 C   0  0  0  0  0  0  0  0  0  0  0  0
   -3.4874    1.3775    0.1466 C   0  0  0  0  0  0  0  0  0  0  0  0
   -2.1117    1.3070    0.1023 C   0  0  0  0  0  0  0  0  0  0  0  0
    0.6446   -1.2079    0.0023 C   0  0  0  0  0  0  0  0  0  0  0  0
    2.5599   -0.1455   -1.1811 N   0  0  0  0  0  0  0  0  0  0  0  0
    2.1506   -0.9584   -0.0300 C   0  0  1  0  0  0  0  0  0  0  0  0
    2.7075   -0.2201    1.2000 C   0  0  0  0  0  0  0  0  0  0  0  0
    3.8856    0.5607    0.6198 C   0  0  0  0  0  0  0  0  0  0  0  0
    3.3325    1.0091   -0.7323 C   0  0  0  0  0  0  0  0  0  0  0  0
    0.3829    0.8533    0.2517 H   0  0  0  0  0  0  0  0  0  0  0  0
   -1.7648   -2.0605   -0.1997 H   0  0  0  0  0  0  0  0  0  0  0  0
   -4.2096   -1.9152   -0.1291 H   0  0  0  0  0  0  0  0  0  0  0  0
   -5.3483    0.2830    0.0943 H   0  0  0  0  0  0  0  0  0  0  0  0
   -3.9675    2.3521    0.2498 H   0  0  0  0  0  0  0  0  0  0  0  0
   -1.5135    2.2191    0.1615 H   0  0  0  0  0  0  0  0  0  0  0  0
    0.3923   -1.7733    0.9218 H   0  0  0  0  0  0  0  0  0  0  0  0
    0.3755   -1.8545   -0.8507 H   0  0  0  0  0  0  0  0  0  0  0  0
    1.7661    0.1130   -1.7588 H   0  0  0  0  0  0  0  0  0  0  0  0
    2.6272   -1.9539   -0.0861 H   0  0  0  0  0  0  0  0  0  0  0  0
    1.9592    0.4825    1.6061 H   0  0  0  0  0  0  0  0  0  0  0  0
    2.9831   -0.9061    2.0122 H   0  0  0  0  0  0  0  0  0  0  0  0
    4.2171    1.3969    1.2497 H   0  0  0  0  0  0  0  0  0  0  0  0
    4.7417   -0.1134    0.4642 H   0  0  0  0  0  0  0  0  0  0  0  0
    2.7120    1.9186   -0.5949 H   0  0  0  0  0  0  0  0  0  0  0  0
    4.1299    1.2653   -1.4467 H   0  0  0  0  0  0  0  0  0  0  0  0
  1  2  1  0  0  0  0
  1  8  1  0  0  0  0
  1 14  1  0  0  0  0
  2  3  2  0  0  0  0
  2  7  1  0  0  0  0
  3  4  1  0  0  0  0
  3 15  1  0  0  0  0
  4  5  2  0  0  0  0
  4 16  1  0  0  0  0
  5  6  1  0  0  0  0
  5 17  1  0  0  0  0
  6  7  2  0  0  0  0
  6 18  1  0  0  0  0
  7 19  1  0  0  0  0
  8 10  1  0  0  0  0
  8 20  1  0  0  0  0
  8 21  1  0  0  0  0
  9 10  1  0  0  0  0
  9 13  1  0  0  0  0
  9 22  1  0  0  0  0
 10 11  1  0  0  0  0
 10 23  1  6  0  0  0
 11 12  1  0  0  0  0
 11 24  1  0  0  0  0
 11 25  1  0  0  0  0
 12 13  1  0  0  0  0
 12 26  1  0  0  0  0
 12 27  1  0  0  0  0
 13 28  1  0  0  0  0
 13 29  1  0  0  0  0
M  END
$$$$
