Title Card Required
 OpenBabel03192317553D

 58 61  0  0  1  0  0  0  0  0999 V2000
    0.6493   -2.0129    0.8127 C   0  0  0  0  0  0  0  0  0  0  0  0
    0.6581   -0.5495    0.3581 C   0  0  1  0  0  0  0  0  0  0  0  0
   -0.6332    0.2329    0.7178 C   0  0  2  0  0  0  0  0  0  0  0  0
   -1.1920   -0.1403    2.0868 C   0  0  0  0  0  0  0  0  0  0  0  0
    2.1107    0.3307    1.1574 P   0  0  0  0  0  0  0  0  0  0  0  0
    3.5069   -0.7197    0.5534 C   0  0  0  0  0  0  0  0  0  0  0  0
    3.9485   -0.7135   -0.7766 C   0  0  0  0  0  0  0  0  0  0  0  0
    4.9750   -1.5630   -1.1838 C   0  0  0  0  0  0  0  0  0  0  0  0
    5.5746   -2.4285   -0.2673 C   0  0  0  0  0  0  0  0  0  0  0  0
    5.1469   -2.4383    1.0589 C   0  0  0  0  0  0  0  0  0  0  0  0
    4.1223   -1.5834    1.4668 C   0  0  0  0  0  0  0  0  0  0  0  0
    2.3358    1.8054    0.0679 C   0  0  0  0  0  0  0  0  0  0  0  0
    3.3857    2.6666    0.4212 C   0  0  0  0  0  0  0  0  0  0  0  0
    3.6625    3.8061   -0.3277 C   0  0  0  0  0  0  0  0  0  0  0  0
    2.8754    4.1196   -1.4369 C   0  0  0  0  0  0  0  0  0  0  0  0
    1.8188    3.2833   -1.7888 C   0  0  0  0  0  0  0  0  0  0  0  0
    1.5506    2.1303   -1.0462 C   0  0  0  0  0  0  0  0  0  0  0  0
   -1.8274    0.1692   -0.7429 P   0  0  0  0  0  0  0  0  0  0  0  0
   -2.4252   -1.5745   -0.6892 C   0  0  0  0  0  0  0  0  0  0  0  0
   -3.2553   -2.0996    0.3129 C   0  0  0  0  0  0  0  0  0  0  0  0
   -3.5715   -3.4563    0.3302 C   0  0  0  0  0  0  0  0  0  0  0  0
   -3.0668   -4.3071   -0.6552 C   0  0  0  0  0  0  0  0  0  0  0  0
   -2.2588   -3.7939   -1.6674 C   0  0  0  0  0  0  0  0  0  0  0  0
   -1.9476   -2.4339   -1.6867 C   0  0  0  0  0  0  0  0  0  0  0  0
   -3.2772    1.1115   -0.1058 C   0  0  0  0  0  0  0  0  0  0  0  0
   -3.0912    2.2965    0.6209 C   0  0  0  0  0  0  0  0  0  0  0  0
   -4.1788    3.0794    1.0045 C   0  0  0  0  0  0  0  0  0  0  0  0
   -5.4746    2.6988    0.6588 C   0  0  0  0  0  0  0  0  0  0  0  0
   -5.6719    1.5333   -0.0797 C   0  0  0  0  0  0  0  0  0  0  0  0
   -4.5843    0.7491   -0.4618 C   0  0  0  0  0  0  0  0  0  0  0  0
    0.7323   -2.0945    1.9078 H   0  0  0  0  0  0  0  0  0  0  0  0
    1.4978   -2.5543    0.3724 H   0  0  0  0  0  0  0  0  0  0  0  0
   -0.2755   -2.5230    0.5074 H   0  0  0  0  0  0  0  0  0  0  0  0
    0.8106   -0.5303   -0.7351 H   0  0  0  0  0  0  0  0  0  0  0  0
   -0.3730    1.3062    0.7383 H   0  0  0  0  0  0  0  0  0  0  0  0
   -0.4164   -0.0026    2.8573 H   0  0  0  0  0  0  0  0  0  0  0  0
   -2.0524    0.4900    2.3520 H   0  0  0  0  0  0  0  0  0  0  0  0
   -1.5139   -1.1903    2.1179 H   0  0  0  0  0  0  0  0  0  0  0  0
    3.4905   -0.0301   -1.4965 H   0  0  0  0  0  0  0  0  0  0  0  0
    5.3119   -1.5478   -2.2218 H   0  0  0  0  0  0  0  0  0  0  0  0
    6.3801   -3.0912   -0.5878 H   0  0  0  0  0  0  0  0  0  0  0  0
    5.6160   -3.1083    1.7814 H   0  0  0  0  0  0  0  0  0  0  0  0
    3.7937   -1.5835    2.5092 H   0  0  0  0  0  0  0  0  0  0  0  0
    3.9987    2.4318    1.2958 H   0  0  0  0  0  0  0  0  0  0  0  0
    4.4906    4.4564   -0.0409 H   0  0  0  0  0  0  0  0  0  0  0  0
    3.0845    5.0165   -2.0220 H   0  0  0  0  0  0  0  0  0  0  0  0
    1.1951    3.5228   -2.6517 H   0  0  0  0  0  0  0  0  0  0  0  0
    0.7171    1.4934   -1.3531 H   0  0  0  0  0  0  0  0  0  0  0  0
   -3.6586   -1.4394    1.0840 H   0  0  0  0  0  0  0  0  0  0  0  0
   -4.2142   -3.8531    1.1178 H   0  0  0  0  0  0  0  0  0  0  0  0
   -3.3122   -5.3703   -0.6368 H   0  0  0  0  0  0  0  0  0  0  0  0
   -1.8720   -4.4526   -2.4465 H   0  0  0  0  0  0  0  0  0  0  0  0
   -1.3137   -2.0300   -2.4799 H   0  0  0  0  0  0  0  0  0  0  0  0
   -2.0851    2.6219    0.8959 H   0  0  0  0  0  0  0  0  0  0  0  0
   -4.0091    3.9939    1.5751 H   0  0  0  0  0  0  0  0  0  0  0  0
   -6.3265    3.3107    0.9589 H   0  0  0  0  0  0  0  0  0  0  0  0
   -6.6809    1.2294   -0.3634 H   0  0  0  0  0  0  0  0  0  0  0  0
   -4.7574   -0.1601   -1.0419 H   0  0  0  0  0  0  0  0  0  0  0  0
  1  2  1  0  0  0  0
  1 31  1  0  0  0  0
  1 32  1  0  0  0  0
  1 33  1  0  0  0  0
  2  3  1  0  0  0  0
  2  5  1  0  0  0  0
  2 34  1  6  0  0  0
  3  4  1  0  0  0  0
  3 18  1  0  0  0  0
  3 35  1  1  0  0  0
  4 36  1  0  0  0  0
  4 37  1  0  0  0  0
  4 38  1  0  0  0  0
  5  6  1  0  0  0  0
  5 12  1  0  0  0  0
  6  7  2  0  0  0  0
  6 11  1  0  0  0  0
  7  8  1  0  0  0  0
  7 39  1  0  0  0  0
  8  9  2  0  0  0  0
  8 40  1  0  0  0  0
  9 10  1  0  0  0  0
  9 41  1  0  0  0  0
 10 11  2  0  0  0  0
 10 42  1  0  0  0  0
 11 43  1  0  0  0  0
 12 13  2  0  0  0  0
 12 17  1  0  0  0  0
 13 14  1  0  0  0  0
 13 44  1  0  0  0  0
 14 15  2  0  0  0  0
 14 45  1  0  0  0  0
 15 16  1  0  0  0  0
 15 46  1  0  0  0  0
 16 17  2  0  0  0  0
 16 47  1  0  0  0  0
 17 48  1  0  0  0  0
 18 19  1  0  0  0  0
 18 25  1  0  0  0  0
 19 20  2  0  0  0  0
 19 24  1  0  0  0  0
 20 21  1  0  0  0  0
 20 49  1  0  0  0  0
 21 22  2  0  0  0  0
 21 50  1  0  0  0  0
 22 23  1  0  0  0  0
 22 51  1  0  0  0  0
 23 24  2  0  0  0  0
 23 52  1  0  0  0  0
 24 53  1  0  0  0  0
 25 26  2  0  0  0  0
 25 30  1  0  0  0  0
 26 27  1  0  0  0  0
 26 54  1  0  0  0  0
 27 28  2  0  0  0  0
 27 55  1  0  0  0  0
 28 29  1  0  0  0  0
 28 56  1  0  0  0  0
 29 30  2  0  0  0  0
 29 57  1  0  0  0  0
 30 58  1  0  0  0  0
M  END
$$$$
