Title Card Required
 OpenBabel03192317433D

 36 39  0  0  0  0  0  0  0  0999 V2000
    2.8035   -0.5691    1.2937 C   0  0  0  0  0  0  0  0  0  0  0  0
    1.7839   -0.5081    0.2994 C   0  0  0  0  0  0  0  0  0  0  0  0
    0.5367   -1.1704    0.5157 C   0  0  0  0  0  0  0  0  0  0  0  0
    0.3362   -1.8525    1.7047 C   0  0  0  0  0  0  0  0  0  0  0  0
    1.3484   -1.9018    2.6979 C   0  0  0  0  0  0  0  0  0  0  0  0
    2.5523   -1.2810    2.4955 C   0  0  0  0  0  0  0  0  0  0  0  0
   -0.5367   -1.1707   -0.5152 C   0  0  0  0  0  0  0  0  0  0  0  0
   -1.7839   -0.5082   -0.2992 C   0  0  0  0  0  0  0  0  0  0  0  0
   -2.8035   -0.5697   -1.2935 C   0  0  0  0  0  0  0  0  0  0  0  0
   -2.5524   -1.2822   -2.4949 C   0  0  0  0  0  0  0  0  0  0  0  0
   -1.3485   -1.9032   -2.6970 C   0  0  0  0  0  0  0  0  0  0  0  0
   -0.3363   -1.8533   -1.7039 C   0  0  0  0  0  0  0  0  0  0  0  0
   -0.8496   -2.4723    1.8973 O   0  0  0  0  0  0  0  0  0  0  0  0
    0.8495   -2.4733   -1.8962 O   0  0  0  0  0  0  0  0  0  0  0  0
    4.0487    0.0791    1.0736 C   0  0  0  0  0  0  0  0  0  0  0  0
    4.2642    0.7678   -0.0912 C   0  0  0  0  0  0  0  0  0  0  0  0
    3.2581    0.8547   -1.0843 C   0  0  0  0  0  0  0  0  0  0  0  0
    2.0521    0.2299   -0.8885 C   0  0  0  0  0  0  0  0  0  0  0  0
   -2.0521    0.2304    0.8883 C   0  0  0  0  0  0  0  0  0  0  0  0
   -3.2580    0.8553    1.0838 C   0  0  0  0  0  0  0  0  0  0  0  0
   -4.2642    0.7679    0.0908 C   0  0  0  0  0  0  0  0  0  0  0  0
   -4.0487    0.0786   -1.0737 C   0  0  0  0  0  0  0  0  0  0  0  0
    5.9250    1.6240   -0.3927 Br  0  0  0  0  0  0  0  0  0  0  0  0
   -5.9250    1.6242    0.3920 Br  0  0  0  0  0  0  0  0  0  0  0  0
    1.1565   -2.4509    3.6233 H   0  0  0  0  0  0  0  0  0  0  0  0
    3.3317   -1.3296    3.2581 H   0  0  0  0  0  0  0  0  0  0  0  0
   -3.3318   -1.3312   -3.2575 H   0  0  0  0  0  0  0  0  0  0  0  0
   -1.1566   -2.4528   -3.6222 H   0  0  0  0  0  0  0  0  0  0  0  0
   -0.8598   -2.9012    2.7596 H   0  0  0  0  0  0  0  0  0  0  0  0
    0.8597   -2.9026   -2.7583 H   0  0  0  0  0  0  0  0  0  0  0  0
    4.8258    0.0202    1.8371 H   0  0  0  0  0  0  0  0  0  0  0  0
    3.4522    1.4194   -1.9963 H   0  0  0  0  0  0  0  0  0  0  0  0
    1.2768    0.3022   -1.6521 H   0  0  0  0  0  0  0  0  0  0  0  0
   -1.2767    0.3031    1.6519 H   0  0  0  0  0  0  0  0  0  0  0  0
   -3.4521    1.4205    1.9955 H   0  0  0  0  0  0  0  0  0  0  0  0
   -4.8259    0.0193   -1.8371 H   0  0  0  0  0  0  0  0  0  0  0  0
  1  2  1  0  0  0  0
  1  6  2  0  0  0  0
  1 15  1  0  0  0  0
  2  3  2  0  0  0  0
  2 18  1  0  0  0  0
  3  4  1  0  0  0  0
  3  7  1  0  0  0  0
  4  5  2  0  0  0  0
  4 13  1  0  0  0  0
  5  6  1  0  0  0  0
  5 25  1  0  0  0  0
  6 26  1  0  0  0  0
  7  8  2  0  0  0  0
  7 12  1  0  0  0  0
  8  9  1  0  0  0  0
  8 19  1  0  0  0  0
  9 10  2  0  0  0  0
  9 22  1  0  0  0  0
 10 11  1  0  0  0  0
 10 27  1  0  0  0  0
 11 12  2  0  0  0  0
 11 28  1  0  0  0  0
 12 14  1  0  0  0  0
 13 29  1  0  0  0  0
 14 30  1  0  0  0  0
 15 16  2  0  0  0  0
 15 31  1  0  0  0  0
 16 17  1  0  0  0  0
 16 23  1  0  0  0  0
 17 18  2  0  0  0  0
 17 32  1  0  0  0  0
 18 33  1  0  0  0  0
 19 20  2  0  0  0  0
 19 34  1  0  0  0  0
 20 21  1  0  0  0  0
 20 35  1  0  0  0  0
 21 22  2  0  0  0  0
 21 24  1  0  0  0  0
 22 36  1  0  0  0  0
M  END
$$$$
