Title Card Required
 OpenBabel03192317433D

 44 47  0  0  0  0  0  0  0  0999 V2000
   -2.5208   -1.6400    0.8741 C   0  0  0  0  0  0  0  0  0  0  0  0
   -1.1654   -1.2671    0.9120 C   0  0  0  0  0  0  0  0  0  0  0  0
   -0.7201   -0.1509    0.1751 C   0  0  0  0  0  0  0  0  0  0  0  0
   -1.6254    0.6143   -0.5791 C   0  0  0  0  0  0  0  0  0  0  0  0
   -2.9738    0.2316   -0.5935 C   0  0  0  0  0  0  0  0  0  0  0  0
   -3.4110   -0.8774    0.1148 C   0  0  0  0  0  0  0  0  0  0  0  0
    0.7262    0.2205    0.1492 C   0  0  0  0  0  0  0  0  0  0  0  0
    1.2146    1.3370    0.8515 C   0  0  0  0  0  0  0  0  0  0  0  0
    2.5816    1.6473    0.7939 C   0  0  0  0  0  0  0  0  0  0  0  0
    3.4338    0.8287    0.0453 C   0  0  0  0  0  0  0  0  0  0  0  0
    2.9522   -0.2746   -0.6418 C   0  0  0  0  0  0  0  0  0  0  0  0
    1.5892   -0.5919   -0.6004 C   0  0  0  0  0  0  0  0  0  0  0  0
   -1.1540    1.6755   -1.2544 O   0  0  0  0  0  0  0  0  0  0  0  0
    1.1515   -1.6726   -1.2773 O   0  0  0  0  0  0  0  0  0  0  0  0
   -4.1976    1.2542   -1.6237 Br  0  0  0  0  0  0  0  0  0  0  0  0
    4.1145   -1.3530   -1.6660 Br  0  0  0  0  0  0  0  0  0  0  0  0
    3.1611    2.8359    1.5342 C   0  0  0  0  0  0  0  0  0  0  0  0
    2.0988    3.8549    1.9310 C   0  0  0  0  0  0  0  0  0  0  0  0
    0.9355    3.1452    2.6148 C   0  0  0  0  0  0  0  0  0  0  0  0
    0.2466    2.1937    1.6408 C   0  0  0  0  0  0  0  0  0  0  0  0
   -0.1584   -2.0611    1.7209 C   0  0  0  0  0  0  0  0  0  0  0  0
   -0.8010   -3.0168    2.7216 C   0  0  0  0  0  0  0  0  0  0  0  0
   -1.9365   -3.7942    2.0648 C   0  0  0  0  0  0  0  0  0  0  0  0
   -3.0435   -2.8313    1.6511 C   0  0  0  0  0  0  0  0  0  0  0  0
   -4.4663   -1.1537    0.0726 H   0  0  0  0  0  0  0  0  0  0  0  0
    4.4994    1.0602   -0.0098 H   0  0  0  0  0  0  0  0  0  0  0  0
   -1.8737    2.0921   -1.7497 H   0  0  0  0  0  0  0  0  0  0  0  0
    0.1850   -1.6933   -1.2451 H   0  0  0  0  0  0  0  0  0  0  0  0
    3.9397    3.3044    0.9135 H   0  0  0  0  0  0  0  0  0  0  0  0
    3.6706    2.4756    2.4452 H   0  0  0  0  0  0  0  0  0  0  0  0
    1.7285    4.3759    1.0320 H   0  0  0  0  0  0  0  0  0  0  0  0
    2.5368    4.6191    2.5894 H   0  0  0  0  0  0  0  0  0  0  0  0
    1.3199    2.5790    3.4804 H   0  0  0  0  0  0  0  0  0  0  0  0
    0.2048    3.8676    3.0068 H   0  0  0  0  0  0  0  0  0  0  0  0
   -0.4652    1.5431    2.1723 H   0  0  0  0  0  0  0  0  0  0  0  0
   -0.3552    2.7725    0.9191 H   0  0  0  0  0  0  0  0  0  0  0  0
    0.5227   -1.3616    2.2284 H   0  0  0  0  0  0  0  0  0  0  0  0
    0.4771   -2.6308    1.0200 H   0  0  0  0  0  0  0  0  0  0  0  0
   -1.2037   -2.4467    3.5760 H   0  0  0  0  0  0  0  0  0  0  0  0
   -0.0367   -3.6962    3.1246 H   0  0  0  0  0  0  0  0  0  0  0  0
   -1.5504   -4.3241    1.1776 H   0  0  0  0  0  0  0  0  0  0  0  0
   -2.3385   -4.5580    2.7457 H   0  0  0  0  0  0  0  0  0  0  0  0
   -3.8096   -3.3467    1.0522 H   0  0  0  0  0  0  0  0  0  0  0  0
   -3.5572   -2.4648    2.5570 H   0  0  0  0  0  0  0  0  0  0  0  0
  1  2  2  0  0  0  0
  1  6  1  0  0  0  0
  1 24  1  0  0  0  0
  2  3  1  0  0  0  0
  2 21  1  0  0  0  0
  3  4  2  0  0  0  0
  3  7  1  0  0  0  0
  4  5  1  0  0  0  0
  4 13  1  0  0  0  0
  5  6  2  0  0  0  0
  5 15  1  0  0  0  0
  6 25  1  0  0  0  0
  7  8  2  0  0  0  0
  7 12  1  0  0  0  0
  8  9  1  0  0  0  0
  8 20  1  0  0  0  0
  9 10  2  0  0  0  0
  9 17  1  0  0  0  0
 10 11  1  0  0  0  0
 10 26  1  0  0  0  0
 11 12  2  0  0  0  0
 11 16  1  0  0  0  0
 12 14  1  0  0  0  0
 13 27  1  0  0  0  0
 14 28  1  0  0  0  0
 17 18  1  0  0  0  0
 17 29  1  0  0  0  0
 17 30  1  0  0  0  0
 18 19  1  0  0  0  0
 18 31  1  0  0  0  0
 18 32  1  0  0  0  0
 19 20  1  0  0  0  0
 19 33  1  0  0  0  0
 19 34  1  0  0  0  0
 20 35  1  0  0  0  0
 20 36  1  0  0  0  0
 21 22  1  0  0  0  0
 21 37  1  0  0  0  0
 21 38  1  0  0  0  0
 22 23  1  0  0  0  0
 22 39  1  0  0  0  0
 22 40  1  0  0  0  0
 23 24  1  0  0  0  0
 23 41  1  0  0  0  0
 23 42  1  0  0  0  0
 24 43  1  0  0  0  0
 24 44  1  0  0  0  0
M  END
$$$$
