Title Card Required
 OpenBabel03192317423D

 69 75  0  0  1  0  0  0  0  0999 V2000
    1.0564   -0.5424   -1.7854 O   0  0  0  0  0  0  0  0  0  0  0  0
    0.2057    0.8489   -1.4391 P   0  0  2  0  0  0  0  0  0  0  0  0
    0.9363    1.2103    0.0457 O   0  0  0  0  0  0  0  0  0  0  0  0
    2.2095    1.7122   -0.0568 C   0  0  0  0  0  0  0  0  0  0  0  0
    3.2888    0.8446    0.0454 C   0  0  0  0  0  0  0  0  0  0  0  0
    3.3095   -0.6167    0.4285 C   0  0  1  0  0  0  0  0  0  0  0  0
    2.1709   -1.5690    0.1073 C   0  0  0  0  0  0  0  0  0  0  0  0
    1.2556   -1.6056   -0.9469 C   0  0  0  0  0  0  0  0  0  0  0  0
    4.6315   -1.0630   -0.2613 C   0  0  0  0  0  0  0  0  0  0  0  0
    5.5603    0.1574   -0.1395 C   0  0  0  0  0  0  0  0  0  0  0  0
    4.5850    1.3123   -0.1913 C   0  0  0  0  0  0  0  0  0  0  0  0
    4.8188    2.6566   -0.4666 C   0  0  0  0  0  0  0  0  0  0  0  0
    3.7295    3.5330   -0.5244 C   0  0  0  0  0  0  0  0  0  0  0  0
    2.4290    3.0637   -0.3388 C   0  0  0  0  0  0  0  0  0  0  0  0
    3.4191   -0.8151    1.9635 C   0  0  0  0  0  0  0  0  0  0  0  0
    3.1228   -2.3080    2.1743 C   0  0  0  0  0  0  0  0  0  0  0  0
    2.1651   -2.6147    1.0443 C   0  0  0  0  0  0  0  0  0  0  0  0
    1.3528   -3.7336    0.8846 C   0  0  0  0  0  0  0  0  0  0  0  0
    0.5405   -3.8172   -0.2485 C   0  0  0  0  0  0  0  0  0  0  0  0
    0.4907   -2.7596   -1.1540 C   0  0  0  0  0  0  0  0  0  0  0  0
   -1.2953    0.3672   -0.8434 N   0  0  0  0  0  0  0  0  0  0  0  0
   -2.4176    1.1970   -1.3547 C   0  0  1  0  0  0  0  0  0  0  0  0
   -3.5379    0.4307   -2.0563 C   0  0  0  0  0  0  0  0  0  0  0  0
   -2.9258    2.1906   -0.3144 C   0  0  0  0  0  0  0  0  0  0  0  0
   -2.0317    3.1314    0.2125 C   0  0  0  0  0  0  0  0  0  0  0  0
   -2.4383    4.0426    1.1804 C   0  0  0  0  0  0  0  0  0  0  0  0
   -3.7560    4.0284    1.6432 C   0  0  0  0  0  0  0  0  0  0  0  0
   -4.6569    3.1060    1.1183 C   0  0  0  0  0  0  0  0  0  0  0  0
   -4.2455    2.1972    0.1407 C   0  0  0  0  0  0  0  0  0  0  0  0
   -1.4201   -0.4554    0.3820 C   0  0  1  0  0  0  0  0  0  0  0  0
   -1.5073    0.3387    1.6903 C   0  0  0  0  0  0  0  0  0  0  0  0
   -2.4940   -1.5283    0.2383 C   0  0  0  0  0  0  0  0  0  0  0  0
   -2.5441   -2.2865   -0.9389 C   0  0  0  0  0  0  0  0  0  0  0  0
   -3.4739   -3.3058   -1.1020 C   0  0  0  0  0  0  0  0  0  0  0  0
   -4.3887   -3.5874   -0.0840 C   0  0  0  0  0  0  0  0  0  0  0  0
   -4.3569   -2.8377    1.0882 C   0  0  0  0  0  0  0  0  0  0  0  0
   -3.4146   -1.8176    1.2498 C   0  0  0  0  0  0  0  0  0  0  0  0
    5.0428   -1.9832    0.1773 H   0  0  0  0  0  0  0  0  0  0  0  0
    4.4169   -1.2593   -1.3228 H   0  0  0  0  0  0  0  0  0  0  0  0
    6.1055    0.1525    0.8191 H   0  0  0  0  0  0  0  0  0  0  0  0
    6.3135    0.2071   -0.9384 H   0  0  0  0  0  0  0  0  0  0  0  0
    5.8313    3.0191   -0.6534 H   0  0  0  0  0  0  0  0  0  0  0  0
    3.8911    4.5891   -0.7456 H   0  0  0  0  0  0  0  0  0  0  0  0
    1.5705    3.7314   -0.4263 H   0  0  0  0  0  0  0  0  0  0  0  0
    4.3933   -0.4922    2.3579 H   0  0  0  0  0  0  0  0  0  0  0  0
    2.6366   -0.2089    2.4456 H   0  0  0  0  0  0  0  0  0  0  0  0
    4.0376   -2.9171    2.0846 H   0  0  0  0  0  0  0  0  0  0  0  0
    2.6874   -2.5256    3.1599 H   0  0  0  0  0  0  0  0  0  0  0  0
    1.3575   -4.5335    1.6271 H   0  0  0  0  0  0  0  0  0  0  0  0
   -0.0856   -4.6950   -0.4144 H   0  0  0  0  0  0  0  0  0  0  0  0
   -0.1567   -2.7952   -2.0316 H   0  0  0  0  0  0  0  0  0  0  0  0
   -1.9546    1.8131   -2.1439 H   0  0  0  0  0  0  0  0  0  0  0  0
   -4.1352   -0.1905   -1.3798 H   0  0  0  0  0  0  0  0  0  0  0  0
   -4.2095    1.1542   -2.5418 H   0  0  0  0  0  0  0  0  0  0  0  0
   -3.1146   -0.2209   -2.8314 H   0  0  0  0  0  0  0  0  0  0  0  0
   -0.9900    3.1225   -0.1193 H   0  0  0  0  0  0  0  0  0  0  0  0
   -1.7244    4.7634    1.5828 H   0  0  0  0  0  0  0  0  0  0  0  0
   -4.0783    4.7372    2.4074 H   0  0  0  0  0  0  0  0  0  0  0  0
   -5.6900    3.0897    1.4697 H   0  0  0  0  0  0  0  0  0  0  0  0
   -4.9650    1.4783   -0.2523 H   0  0  0  0  0  0  0  0  0  0  0  0
   -0.4676   -1.0095    0.4477 H   0  0  0  0  0  0  0  0  0  0  0  0
   -2.4836    0.8127    1.8484 H   0  0  0  0  0  0  0  0  0  0  0  0
   -1.3168   -0.3462    2.5294 H   0  0  0  0  0  0  0  0  0  0  0  0
   -0.7315    1.1126    1.6975 H   0  0  0  0  0  0  0  0  0  0  0  0
   -1.8581   -2.0316   -1.7495 H   0  0  0  0  0  0  0  0  0  0  0  0
   -3.4946   -3.8788   -2.0307 H   0  0  0  0  0  0  0  0  0  0  0  0
   -5.1244   -4.3834   -0.2096 H   0  0  0  0  0  0  0  0  0  0  0  0
   -5.0705   -3.0422    1.8882 H   0  0  0  0  0  0  0  0  0  0  0  0
   -3.4137   -1.2440    2.1761 H   0  0  0  0  0  0  0  0  0  0  0  0
  1  2  1  0  0  0  0
  1  8  1  0  0  0  0
  2  3  1  0  0  0  0
  2 21  1  1  0  0  0
  3  4  1  0  0  0  0
  4  5  2  0  0  0  0
  4 14  1  0  0  0  0
  5 11  1  0  0  0  0
  6  5  1  6  0  0  0
  6  7  1  0  0  0  0
  6  9  1  0  0  0  0
  6 15  1  0  0  0  0
  7  8  2  0  0  0  0
  7 17  1  0  0  0  0
  8 20  1  0  0  0  0
  9 10  1  0  0  0  0
  9 38  1  0  0  0  0
  9 39  1  0  0  0  0
 10 11  1  0  0  0  0
 10 40  1  0  0  0  0
 10 41  1  0  0  0  0
 11 12  2  0  0  0  0
 12 13  1  0  0  0  0
 12 42  1  0  0  0  0
 13 14  2  0  0  0  0
 13 43  1  0  0  0  0
 14 44  1  0  0  0  0
 15 16  1  0  0  0  0
 15 45  1  0  0  0  0
 15 46  1  0  0  0  0
 16 17  1  0  0  0  0
 16 47  1  0  0  0  0
 16 48  1  0  0  0  0
 17 18  2  0  0  0  0
 18 19  1  0  0  0  0
 18 49  1  0  0  0  0
 19 20  2  0  0  0  0
 19 50  1  0  0  0  0
 20 51  1  0  0  0  0
 21 22  1  0  0  0  0
 21 30  1  0  0  0  0
 22 23  1  0  0  0  0
 22 24  1  0  0  0  0
 22 52  1  6  0  0  0
 23 53  1  0  0  0  0
 23 54  1  0  0  0  0
 23 55  1  0  0  0  0
 24 25  2  0  0  0  0
 24 29  1  0  0  0  0
 25 26  1  0  0  0  0
 25 56  1  0  0  0  0
 26 27  2  0  0  0  0
 26 57  1  0  0  0  0
 27 28  1  0  0  0  0
 27 58  1  0  0  0  0
 28 29  2  0  0  0  0
 28 59  1  0  0  0  0
 29 60  1  0  0  0  0
 30 31  1  0  0  0  0
 30 32  1  0  0  0  0
 30 61  1  1  0  0  0
 31 62  1  0  0  0  0
 31 63  1  0  0  0  0
 31 64  1  0  0  0  0
 32 33  2  0  0  0  0
 32 37  1  0  0  0  0
 33 34  1  0  0  0  0
 33 65  1  0  0  0  0
 34 35  2  0  0  0  0
 34 66  1  0  0  0  0
 35 36  1  0  0  0  0
 35 67  1  0  0  0  0
 36 37  2  0  0  0  0
 36 68  1  0  0  0  0
 37 69  1  0  0  0  0
M  END
$$$$
