Title Card Required
 OpenBabel03192317483D

 48 51  0  0  1  0  0  0  0  0999 V2000
    0.0859   -0.4921   -2.2088 O   0  0  0  0  0  0  0  0  0  0  0  0
    0.5172    0.4020   -1.2073 C   0  0  2  0  0  0  0  0  0  0  0  0
    1.7021    0.5203    0.9863 N   0  0  2  0  0  0  0  0  0  0  0  0
    1.1684   -0.3691   -0.0444 C   0  0  2  0  0  0  0  0  0  0  0  0
    2.2715   -1.3492   -0.5236 C   0  0  0  0  0  0  0  0  0  0  0  0
    3.3660   -1.3781    0.5576 C   0  0  1  0  0  0  0  0  0  0  0  0
    4.1009   -0.0286    0.5595 C   0  0  2  0  0  0  0  0  0  0  0  0
    2.9932    1.0736    0.5902 C   0  0  0  0  0  0  0  0  0  0  0  0
    2.6957   -1.5425    1.9314 C   0  0  0  0  0  0  0  0  0  0  0  0
    1.8742   -0.2538    2.2145 C   0  0  0  0  0  0  0  0  0  0  0  0
    5.0747    0.2025   -0.5619 C   0  0  0  0  0  0  0  0  0  0  0  0
    5.4484   -0.6702   -1.4980 C   0  0  0  0  0  0  0  0  0  0  0  0
   -2.6462    2.9176    0.3837 N   0  0  0  0  0  0  0  0  0  0  0  0
   -1.4824    3.3878    0.0281 C   0  0  0  0  0  0  0  0  0  0  0  0
   -0.4490    2.5885   -0.5254 C   0  0  0  0  0  0  0  0  0  0  0  0
   -0.6400    1.2436   -0.7202 C   0  0  0  0  0  0  0  0  0  0  0  0
   -1.9113    0.6896   -0.3508 C   0  0  0  0  0  0  0  0  0  0  0  0
   -2.2567   -0.6758   -0.4986 C   0  0  0  0  0  0  0  0  0  0  0  0
   -3.4959   -1.1416   -0.1037 C   0  0  0  0  0  0  0  0  0  0  0  0
   -4.4520   -0.2512    0.4533 C   0  0  0  0  0  0  0  0  0  0  0  0
   -4.1379    1.0784    0.5957 C   0  0  0  0  0  0  0  0  0  0  0  0
   -2.8749    1.5882    0.2035 C   0  0  0  0  0  0  0  0  0  0  0  0
   -3.7338   -2.4621   -0.2846 O   0  0  0  0  0  0  0  0  0  0  0  0
   -4.9882   -2.9795    0.0679 C   0  0  0  0  0  0  0  0  0  0  0  0
    0.8589   -0.9503   -2.5558 H   0  0  0  0  0  0  0  0  0  0  0  0
    1.2686    1.0971   -1.6270 H   0  0  0  0  0  0  0  0  0  0  0  0
    0.3594   -0.9460    0.4319 H   0  0  0  0  0  0  0  0  0  0  0  0
    1.8592   -2.3554   -0.6914 H   0  0  0  0  0  0  0  0  0  0  0  0
    2.7148   -1.0060   -1.4756 H   0  0  0  0  0  0  0  0  0  0  0  0
    4.0717   -2.2015    0.3777 H   0  0  0  0  0  0  0  0  0  0  0  0
    4.6770    0.0377    1.5001 H   0  0  0  0  0  0  0  0  0  0  0  0
    3.2620    1.8822    1.2864 H   0  0  0  0  0  0  0  0  0  0  0  0
    2.8929    1.5318   -0.4051 H   0  0  0  0  0  0  0  0  0  0  0  0
    2.0455   -2.4311    1.9212 H   0  0  0  0  0  0  0  0  0  0  0  0
    3.4562   -1.7073    2.7092 H   0  0  0  0  0  0  0  0  0  0  0  0
    2.3840    0.3873    2.9493 H   0  0  0  0  0  0  0  0  0  0  0  0
    0.8826   -0.4914    2.6260 H   0  0  0  0  0  0  0  0  0  0  0  0
    5.5068    1.2108   -0.5908 H   0  0  0  0  0  0  0  0  0  0  0  0
    6.1676   -0.3922   -2.2703 H   0  0  0  0  0  0  0  0  0  0  0  0
    5.0596   -1.6911   -1.5280 H   0  0  0  0  0  0  0  0  0  0  0  0
   -1.3110    4.4594    0.1776 H   0  0  0  0  0  0  0  0  0  0  0  0
    0.5055    3.0520   -0.7823 H   0  0  0  0  0  0  0  0  0  0  0  0
   -1.5608   -1.3757   -0.9551 H   0  0  0  0  0  0  0  0  0  0  0  0
   -5.4322   -0.6073    0.7670 H   0  0  0  0  0  0  0  0  0  0  0  0
   -4.8500    1.7893    1.0158 H   0  0  0  0  0  0  0  0  0  0  0  0
   -5.1887   -2.8657    1.1465 H   0  0  0  0  0  0  0  0  0  0  0  0
   -5.8024   -2.4981   -0.4992 H   0  0  0  0  0  0  0  0  0  0  0  0
   -4.9671   -4.0472   -0.1778 H   0  0  0  0  0  0  0  0  0  0  0  0
  1  2  1  0  0  0  0
  1 25  1  0  0  0  0
  2  4  1  0  0  0  0
  2 16  1  0  0  0  0
  2 26  1  6  0  0  0
  3  4  1  0  0  0  0
  3  8  1  6  0  0  0
  3 10  1  0  0  0  0
  4  5  1  0  0  0  0
  4 27  1  1  0  0  0
  5  6  1  0  0  0  0
  5 28  1  0  0  0  0
  5 29  1  0  0  0  0
  6  7  1  0  0  0  0
  6  9  1  0  0  0  0
  6 30  1  6  0  0  0
  7  8  1  0  0  0  0
  7 11  1  0  0  0  0
  7 31  1  1  0  0  0
  8 32  1  0  0  0  0
  8 33  1  0  0  0  0
  9 10  1  0  0  0  0
  9 34  1  0  0  0  0
  9 35  1  0  0  0  0
 10 36  1  0  0  0  0
 10 37  1  0  0  0  0
 11 12  2  0  0  0  0
 11 38  1  0  0  0  0
 12 39  1  0  0  0  0
 12 40  1  0  0  0  0
 13 14  2  0  0  0  0
 13 22  1  0  0  0  0
 14 15  1  0  0  0  0
 14 41  1  0  0  0  0
 15 16  2  0  0  0  0
 15 42  1  0  0  0  0
 16 17  1  0  0  0  0
 17 18  2  0  0  0  0
 17 22  1  0  0  0  0
 18 19  1  0  0  0  0
 18 43  1  0  0  0  0
 19 20  2  0  0  0  0
 19 23  1  0  0  0  0
 20 21  1  0  0  0  0
 20 44  1  0  0  0  0
 21 22  2  0  0  0  0
 21 45  1  0  0  0  0
 23 24  1  0  0  0  0
 24 46  1  0  0  0  0
 24 47  1  0  0  0  0
 24 48  1  0  0  0  0
M  END
$$$$
