Title Card Required
 OpenBabel03192317443D

 63 67  0  0  1  0  0  0  0  0999 V2000
   -1.8879   -0.7867   -0.2056 N   0  0  2  0  0  4  0  0  0  0  0  0
   -0.4130   -1.1290   -0.0791 C   0  0  1  0  0  0  0  0  0  0  0  0
   -0.2778   -2.3605    0.8304 C   0  0  0  0  0  0  0  0  0  0  0  0
   -1.5078   -2.4541    1.7346 C   0  0  1  0  0  0  0  0  0  0  0  0
   -1.8218   -1.0528    2.2942 C   0  0  2  0  0  0  0  0  0  0  0  0
   -2.2957   -0.1773    1.1249 C   0  0  0  0  0  0  0  0  0  0  0  0
   -2.6956   -2.8906    0.8764 C   0  0  0  0  0  0  0  0  0  0  0  0
   -2.7165   -2.0497   -0.4035 C   0  0  0  0  0  0  0  0  0  0  0  0
   -0.6645   -0.5165    3.1037 C   0  0  0  0  0  0  0  0  0  0  0  0
    0.0448    0.5962    2.9117 C   0  0  0  0  0  0  0  0  0  0  0  0
    0.3595   -1.2847   -1.3942 C   0  0  1  0  0  0  0  0  0  0  0  0
    4.4749   -2.2927   -0.4149 N   0  0  0  0  0  0  0  0  0  0  0  0
    3.6595   -3.1587   -0.9502 C   0  0  0  0  0  0  0  0  0  0  0  0
    2.3111   -2.8649   -1.2936 C   0  0  0  0  0  0  0  0  0  0  0  0
    1.8114   -1.6059   -1.0746 C   0  0  0  0  0  0  0  0  0  0  0  0
    2.6832   -0.6204   -0.5062 C   0  0  0  0  0  0  0  0  0  0  0  0
    2.3002    0.7162   -0.2484 C   0  0  0  0  0  0  0  0  0  0  0  0
    3.1831    1.6114    0.3271 C   0  0  0  0  0  0  0  0  0  0  0  0
    4.5013    1.1983    0.6581 C   0  0  0  0  0  0  0  0  0  0  0  0
    4.8954   -0.0921    0.3981 C   0  0  0  0  0  0  0  0  0  0  0  0
    4.0115   -1.0342   -0.1864 C   0  0  0  0  0  0  0  0  0  0  0  0
    2.7188    2.8589    0.5412 O   0  0  0  0  0  0  0  0  0  0  0  0
    3.5515    3.8043    1.1640 C   0  0  0  0  0  0  0  0  0  0  0  0
   -0.2511   -2.2822   -2.1717 O   0  0  0  0  0  0  0  0  0  0  0  0
   -2.2483    0.1470   -1.3606 C   0  0  0  0  0  0  0  0  0  0  0  0
   -1.8539    1.5928   -1.1873 C   0  0  0  0  0  0  0  0  0  0  0  0
   -0.6806    2.1402   -1.7171 C   0  0  0  0  0  0  0  0  0  0  0  0
   -0.3636    3.4850   -1.5186 C   0  0  0  0  0  0  0  0  0  0  0  0
   -1.2374    4.3052   -0.8093 C   0  0  0  0  0  0  0  0  0  0  0  0
   -2.4386    3.7835   -0.3252 C   0  0  0  0  0  0  0  0  0  0  0  0
   -2.7517    2.4401   -0.5159 C   0  0  0  0  0  0  0  0  0  0  0  0
   -1.3312   -3.1627    2.5561 H   0  0  0  0  0  0  0  0  0  0  0  0
    0.0208   -0.2625    0.4334 H   0  0  0  0  0  0  0  0  0  0  0  0
   -0.1880   -3.2711    0.2175 H   0  0  0  0  0  0  0  0  0  0  0  0
    0.6487   -2.2560    1.4119 H   0  0  0  0  0  0  0  0  0  0  0  0
   -2.6738   -1.1623    2.9851 H   0  0  0  0  0  0  0  0  0  0  0  0
   -3.3959   -0.0850    1.0663 H   0  0  0  0  0  0  0  0  0  0  0  0
   -1.8611    0.8248    1.1649 H   0  0  0  0  0  0  0  0  0  0  0  0
   -2.6158   -3.9550    0.6153 H   0  0  0  0  0  0  0  0  0  0  0  0
   -3.6390   -2.7451    1.4234 H   0  0  0  0  0  0  0  0  0  0  0  0
   -3.7365   -1.6961   -0.6183 H   0  0  0  0  0  0  0  0  0  0  0  0
   -2.2761   -2.5614   -1.2637 H   0  0  0  0  0  0  0  0  0  0  0  0
   -0.3931   -1.1558    3.9530 H   0  0  0  0  0  0  0  0  0  0  0  0
    0.8653    0.8527    3.5842 H   0  0  0  0  0  0  0  0  0  0  0  0
   -0.1527    1.3038    2.1009 H   0  0  0  0  0  0  0  0  0  0  0  0
    0.3387   -0.3212   -1.9260 H   0  0  0  0  0  0  0  0  0  0  0  0
    4.0502   -4.1662   -1.1284 H   0  0  0  0  0  0  0  0  0  0  0  0
    1.6750   -3.6450   -1.7128 H   0  0  0  0  0  0  0  0  0  0  0  0
    1.3090    1.0964   -0.4940 H   0  0  0  0  0  0  0  0  0  0  0  0
    5.2056    1.8953    1.1100 H   0  0  0  0  0  0  0  0  0  0  0  0
    5.9027   -0.4359    0.6346 H   0  0  0  0  0  0  0  0  0  0  0  0
    3.8543    3.4753    2.1715 H   0  0  0  0  0  0  0  0  0  0  0  0
    4.4533    4.0094    0.5643 H   0  0  0  0  0  0  0  0  0  0  0  0
    2.9641    4.7248    1.2499 H   0  0  0  0  0  0  0  0  0  0  0  0
    0.2110   -2.3456   -3.0164 H   0  0  0  0  0  0  0  0  0  0  0  0
   -1.8247   -0.3156   -2.2603 H   0  0  0  0  0  0  0  0  0  0  0  0
   -3.3510    0.0986   -1.3908 H   0  0  0  0  0  0  0  0  0  0  0  0
   -0.0081    1.5311   -2.3244 H   0  0  0  0  0  0  0  0  0  0  0  0
    0.5653    3.8879   -1.9249 H   0  0  0  0  0  0  0  0  0  0  0  0
   -0.9944    5.3575   -0.6529 H   0  0  0  0  0  0  0  0  0  0  0  0
   -3.1444    4.4303    0.1980 H   0  0  0  0  0  0  0  0  0  0  0  0
   -3.7060    2.0203   -0.1719 H   0  0  0  0  0  0  0  0  0  0  0  0
   -5.3350   -0.0116   -0.1345 Cl  0  0  0  0  0  0  0  0  0  0  0  0
  1  2  1  0  0  0  0
  1  6  1  0  0  0  0
  1  8  1  0  0  0  0
  1 25  1  6  0  0  0
  2  3  1  0  0  0  0
  2 11  1  0  0  0  0
  2 33  1  1  0  0  0
  3  4  1  0  0  0  0
  3 34  1  0  0  0  0
  3 35  1  0  0  0  0
  4  5  1  0  0  0  0
  4  7  1  0  0  0  0
  4 32  1  1  0  0  0
  5  6  1  0  0  0  0
  5  9  1  0  0  0  0
  5 36  1  1  0  0  0
  6 37  1  0  0  0  0
  6 38  1  0  0  0  0
  7  8  1  0  0  0  0
  7 39  1  0  0  0  0
  7 40  1  0  0  0  0
  8 41  1  0  0  0  0
  8 42  1  0  0  0  0
  9 10  2  0  0  0  0
  9 43  1  0  0  0  0
 10 44  1  0  0  0  0
 10 45  1  0  0  0  0
 11 15  1  0  0  0  0
 11 24  1  0  0  0  0
 11 46  1  6  0  0  0
 12 13  2  0  0  0  0
 12 21  1  0  0  0  0
 13 14  1  0  0  0  0
 13 47  1  0  0  0  0
 14 15  2  0  0  0  0
 14 48  1  0  0  0  0
 15 16  1  0  0  0  0
 16 17  2  0  0  0  0
 16 21  1  0  0  0  0
 17 18  1  0  0  0  0
 17 49  1  0  0  0  0
 18 19  2  0  0  0  0
 18 22  1  0  0  0  0
 19 20  1  0  0  0  0
 19 50  1  0  0  0  0
 20 21  2  0  0  0  0
 20 51  1  0  0  0  0
 22 23  1  0  0  0  0
 23 52  1  0  0  0  0
 23 53  1  0  0  0  0
 23 54  1  0  0  0  0
 24 55  1  0  0  0  0
 25 26  1  0  0  0  0
 25 56  1  0  0  0  0
 25 57  1  0  0  0  0
 26 27  2  0  0  0  0
 26 31  1  0  0  0  0
 27 28  1  0  0  0  0
 27 58  1  0  0  0  0
 28 29  2  0  0  0  0
 28 59  1  0  0  0  0
 29 30  1  0  0  0  0
 29 60  1  0  0  0  0
 30 31  2  0  0  0  0
 30 61  1  0  0  0  0
 31 62  1  0  0  0  0
 37 63  1  0  0  0  0
M  END
$$$$
