Title Card Required
 OpenBabel03192317463D

 20 20  0  0  1  0  0  0  0  0999 V2000
   -0.1723   -1.5100   -0.4470 N   0  0  0  0  0  0  0  0  0  0  0  0
   -0.6171   -0.6434    0.6488 C   0  0  1  0  0  0  0  0  0  0  0  0
    0.6471   -0.0222    1.2811 C   0  0  0  0  0  0  0  0  0  0  0  0
    1.7546   -0.1922    0.2104 C   0  0  1  0  0  0  0  0  0  0  0  0
    1.0166   -0.8500   -0.9787 C   0  0  0  0  0  0  0  0  0  0  0  0
   -1.4924    0.4219    0.0087 C   0  0  0  0  0  0  0  0  0  0  0  0
   -1.0863    1.4555   -0.4524 O   0  0  0  0  0  0  0  0  0  0  0  0
   -2.7797    0.0675   -0.0349 O   0  0  0  0  0  0  0  0  0  0  0  0
    2.4394    1.1128   -0.1740 C   0  0  0  0  0  0  0  0  0  0  0  0
    0.0721   -2.4215   -0.0666 H   0  0  0  0  0  0  0  0  0  0  0  0
   -1.2380   -1.2140    1.3513 H   0  0  0  0  0  0  0  0  0  0  0  0
    0.9017   -0.5553    2.2070 H   0  0  0  0  0  0  0  0  0  0  0  0
    0.4899    1.0356    1.5321 H   0  0  0  0  0  0  0  0  0  0  0  0
    2.5091   -0.8999    0.5902 H   0  0  0  0  0  0  0  0  0  0  0  0
    0.7008   -0.0650   -1.6846 H   0  0  0  0  0  0  0  0  0  0  0  0
    1.6367   -1.5651   -1.5363 H   0  0  0  0  0  0  0  0  0  0  0  0
   -3.2515    0.7636   -0.5184 H   0  0  0  0  0  0  0  0  0  0  0  0
    2.9759    1.5545    0.6782 H   0  0  0  0  0  0  0  0  0  0  0  0
    3.1664    0.9578   -0.9855 H   0  0  0  0  0  0  0  0  0  0  0  0
    1.6826    1.8339   -0.5182 H   0  0  0  0  0  0  0  0  0  0  0  0
  1  2  1  0  0  0  0
  1  5  1  0  0  0  0
  1 10  1  0  0  0  0
  2  3  1  0  0  0  0
  2  6  1  0  0  0  0
  2 11  1  1  0  0  0
  3  4  1  0  0  0  0
  3 12  1  0  0  0  0
  3 13  1  0  0  0  0
  4  5  1  0  0  0  0
  4  9  1  0  0  0  0
  4 14  1  1  0  0  0
  5 15  1  0  0  0  0
  5 16  1  0  0  0  0
  6  7  2  0  0  0  0
  6  8  1  0  0  0  0
  8 17  1  0  0  0  0
  9 18  1  0  0  0  0
  9 19  1  0  0  0  0
  9 20  1  0  0  0  0
M  END
$$$$
