Title Card Required
 OpenBabel03192317453D

 55 58  0  0  1  0  0  0  0  0999 V2000
    0.7675   -1.5592   -0.7531 C   0  0  0  0  0  0  0  0  0  0  0  0
   -0.3870   -1.8023   -1.7394 C   0  0  1  0  0  0  0  0  0  0  0  0
   -0.6452   -3.3060   -1.9182 C   0  0  0  0  0  0  0  0  0  0  0  0
    1.6587    0.0845   -0.8607 P   0  0  0  0  0  0  0  0  0  0  0  0
    0.9785    1.0883    0.5267 C   0  0  0  0  0  0  0  0  0  0  0  0
    0.1419    0.6004    1.5365 C   0  0  0  0  0  0  0  0  0  0  0  0
   -0.3117    1.4389    2.5540 C   0  0  0  0  0  0  0  0  0  0  0  0
    0.0747    2.7786    2.5816 C   0  0  0  0  0  0  0  0  0  0  0  0
    0.9099    3.2762    1.5820 C   0  0  0  0  0  0  0  0  0  0  0  0
    1.3492    2.4388    0.5576 C   0  0  0  0  0  0  0  0  0  0  0  0
    3.2626   -0.4601   -0.1031 C   0  0  0  0  0  0  0  0  0  0  0  0
    4.1864   -1.0779   -0.9589 C   0  0  0  0  0  0  0  0  0  0  0  0
    5.4175   -1.5234   -0.4837 C   0  0  0  0  0  0  0  0  0  0  0  0
    5.7542   -1.3395    0.8576 C   0  0  0  0  0  0  0  0  0  0  0  0
    4.8514   -0.7126    1.7140 C   0  0  0  0  0  0  0  0  0  0  0  0
    3.6131   -0.2769    1.2396 C   0  0  0  0  0  0  0  0  0  0  0  0
   -2.0606   -0.9549   -1.6143 P   0  0  0  0  0  0  0  0  0  0  0  0
   -1.6572    0.8421   -1.4787 C   0  0  0  0  0  0  0  0  0  0  0  0
   -0.9712    1.4217   -2.5557 C   0  0  0  0  0  0  0  0  0  0  0  0
   -0.7040    2.7889   -2.5820 C   0  0  0  0  0  0  0  0  0  0  0  0
   -1.1516    3.6082   -1.5470 C   0  0  0  0  0  0  0  0  0  0  0  0
   -1.8563    3.0480   -0.4828 C   0  0  0  0  0  0  0  0  0  0  0  0
   -2.1014    1.6768   -0.4450 C   0  0  0  0  0  0  0  0  0  0  0  0
   -2.7689   -1.3503    0.0399 C   0  0  0  0  0  0  0  0  0  0  0  0
   -2.1908   -2.1634    1.0231 C   0  0  0  0  0  0  0  0  0  0  0  0
   -2.8655   -2.4390    2.2144 C   0  0  0  0  0  0  0  0  0  0  0  0
   -4.1302   -1.9049    2.4475 C   0  0  0  0  0  0  0  0  0  0  0  0
   -4.7288   -1.1097    1.4696 C   0  0  0  0  0  0  0  0  0  0  0  0
   -4.0618   -0.8526    0.2753 C   0  0  0  0  0  0  0  0  0  0  0  0
    1.5636   -2.2722   -1.0266 H   0  0  0  0  0  0  0  0  0  0  0  0
    0.5151   -1.8030    0.2881 H   0  0  0  0  0  0  0  0  0  0  0  0
   -0.0436   -1.4234   -2.7186 H   0  0  0  0  0  0  0  0  0  0  0  0
   -0.9977   -3.7736   -0.9870 H   0  0  0  0  0  0  0  0  0  0  0  0
   -1.4073   -3.4867   -2.6895 H   0  0  0  0  0  0  0  0  0  0  0  0
    0.2804   -3.8189   -2.2192 H   0  0  0  0  0  0  0  0  0  0  0  0
   -0.1885   -0.4387    1.5311 H   0  0  0  0  0  0  0  0  0  0  0  0
   -0.9750    1.0399    3.3238 H   0  0  0  0  0  0  0  0  0  0  0  0
   -0.2777    3.4352    3.3789 H   0  0  0  0  0  0  0  0  0  0  0  0
    1.2109    4.3253    1.5916 H   0  0  0  0  0  0  0  0  0  0  0  0
    1.9850    2.8398   -0.2363 H   0  0  0  0  0  0  0  0  0  0  0  0
    3.9392   -1.2026   -2.0173 H   0  0  0  0  0  0  0  0  0  0  0  0
    6.1220   -2.0027   -1.1657 H   0  0  0  0  0  0  0  0  0  0  0  0
    6.7215   -1.6789    1.2315 H   0  0  0  0  0  0  0  0  0  0  0  0
    5.1093   -0.5608    2.7636 H   0  0  0  0  0  0  0  0  0  0  0  0
    2.9172    0.2128    1.9238 H   0  0  0  0  0  0  0  0  0  0  0  0
   -0.6361    0.7988   -3.3893 H   0  0  0  0  0  0  0  0  0  0  0  0
   -0.1537    3.2155   -3.4221 H   0  0  0  0  0  0  0  0  0  0  0  0
   -0.9518    4.6808   -1.5699 H   0  0  0  0  0  0  0  0  0  0  0  0
   -2.2013    3.6780    0.3390 H   0  0  0  0  0  0  0  0  0  0  0  0
   -2.6272    1.2550    0.4123 H   0  0  0  0  0  0  0  0  0  0  0  0
   -1.2044   -2.6001    0.8689 H   0  0  0  0  0  0  0  0  0  0  0  0
   -2.3939   -3.0768    2.9640 H   0  0  0  0  0  0  0  0  0  0  0  0
   -4.6537   -2.1172    3.3808 H   0  0  0  0  0  0  0  0  0  0  0  0
   -5.7267   -0.6984    1.6309 H   0  0  0  0  0  0  0  0  0  0  0  0
   -4.5506   -0.2489   -0.4945 H   0  0  0  0  0  0  0  0  0  0  0  0
  1  2  1  0  0  0  0
  1  4  1  0  0  0  0
  1 30  1  0  0  0  0
  1 31  1  0  0  0  0
  2  3  1  0  0  0  0
  2 17  1  0  0  0  0
  2 32  1  6  0  0  0
  3 33  1  0  0  0  0
  3 34  1  0  0  0  0
  3 35  1  0  0  0  0
  4  5  1  0  0  0  0
  4 11  1  0  0  0  0
  5  6  2  0  0  0  0
  5 10  1  0  0  0  0
  6  7  1  0  0  0  0
  6 36  1  0  0  0  0
  7  8  2  0  0  0  0
  7 37  1  0  0  0  0
  8  9  1  0  0  0  0
  8 38  1  0  0  0  0
  9 10  2  0  0  0  0
  9 39  1  0  0  0  0
 10 40  1  0  0  0  0
 11 12  2  0  0  0  0
 11 16  1  0  0  0  0
 12 13  1  0  0  0  0
 12 41  1  0  0  0  0
 13 14  2  0  0  0  0
 13 42  1  0  0  0  0
 14 15  1  0  0  0  0
 14 43  1  0  0  0  0
 15 16  2  0  0  0  0
 15 44  1  0  0  0  0
 16 45  1  0  0  0  0
 17 18  1  0  0  0  0
 17 24  1  0  0  0  0
 18 19  2  0  0  0  0
 18 23  1  0  0  0  0
 19 20  1  0  0  0  0
 19 46  1  0  0  0  0
 20 21  2  0  0  0  0
 20 47  1  0  0  0  0
 21 22  1  0  0  0  0
 21 48  1  0  0  0  0
 22 23  2  0  0  0  0
 22 49  1  0  0  0  0
 23 50  1  0  0  0  0
 24 25  2  0  0  0  0
 24 29  1  0  0  0  0
 25 26  1  0  0  0  0
 25 51  1  0  0  0  0
 26 27  2  0  0  0  0
 26 52  1  0  0  0  0
 27 28  1  0  0  0  0
 27 53  1  0  0  0  0
 28 29  2  0  0  0  0
 28 54  1  0  0  0  0
 29 55  1  0  0  0  0
M  END
$$$$
