Title Card Required
 OpenBabel03192317503D

 72 77  0  0  0  0  0  0  0  0999 V2000
    1.3631    0.8103    0.1071 P   0  0  0  0  0  0  0  0  0  0  0  0
   -1.1828   -0.2279   -0.3934 C   0  0  0  0  0  0  0  0  0  0  0  0
   -0.2462    0.7054   -0.8198 C   0  0  0  0  0  0  0  0  0  0  0  0
   -0.5488    1.5113   -1.9563 C   0  0  0  0  0  0  0  0  0  0  0  0
   -1.7562    1.4256   -2.5982 C   0  0  0  0  0  0  0  0  0  0  0  0
   -2.7529    0.5190   -2.1459 C   0  0  0  0  0  0  0  0  0  0  0  0
   -4.0210    0.4229   -2.7792 C   0  0  0  0  0  0  0  0  0  0  0  0
   -4.9617   -0.4733   -2.3337 C   0  0  0  0  0  0  0  0  0  0  0  0
   -4.6716   -1.3183   -1.2350 C   0  0  0  0  0  0  0  0  0  0  0  0
   -3.4524   -1.2487   -0.6050 C   0  0  0  0  0  0  0  0  0  0  0  0
   -2.4604   -0.3253   -1.0375 C   0  0  0  0  0  0  0  0  0  0  0  0
   -0.8451   -1.2010    0.6898 C   0  0  0  0  0  0  0  0  0  0  0  0
   -1.2015   -0.9471    2.0027 C   0  0  0  0  0  0  0  0  0  0  0  0
   -0.7972   -1.8224    3.0451 C   0  0  0  0  0  0  0  0  0  0  0  0
   -0.0592   -2.9427    2.7524 C   0  0  0  0  0  0  0  0  0  0  0  0
    0.2857   -3.2665    1.4164 C   0  0  0  0  0  0  0  0  0  0  0  0
    1.0264   -4.4368    1.0940 C   0  0  0  0  0  0  0  0  0  0  0  0
    1.3279   -4.7428   -0.2095 C   0  0  0  0  0  0  0  0  0  0  0  0
    0.8909   -3.8891   -1.2534 C   0  0  0  0  0  0  0  0  0  0  0  0
    0.1857   -2.7443   -0.9741 C   0  0  0  0  0  0  0  0  0  0  0  0
   -0.1296   -2.3909    0.3705 C   0  0  0  0  0  0  0  0  0  0  0  0
   -1.9298    0.1726    2.2251 O   0  0  0  0  0  0  0  0  0  0  0  0
   -2.3822    0.4480    3.5239 C   0  0  0  0  0  0  0  0  0  0  0  0
    2.5667    1.0464   -1.3188 C   0  0  0  0  0  0  0  0  0  0  0  0
    2.7050   -0.2784   -2.0906 C   0  0  0  0  0  0  0  0  0  0  0  0
    3.4332   -1.3555   -1.2815 C   0  0  0  0  0  0  0  0  0  0  0  0
    4.7998   -0.8633   -0.8042 C   0  0  0  0  0  0  0  0  0  0  0  0
    4.6732    0.4385   -0.0114 C   0  0  0  0  0  0  0  0  0  0  0  0
    3.9530    1.5063   -0.8371 C   0  0  0  0  0  0  0  0  0  0  0  0
    1.4219    2.5020    0.9329 C   0  0  0  0  0  0  0  0  0  0  0  0
    0.4820    2.5669    2.1527 C   0  0  0  0  0  0  0  0  0  0  0  0
   -0.9143    3.0948    1.8241 C   0  0  0  0  0  0  0  0  0  0  0  0
   -0.8298    4.4630    1.1535 C   0  0  0  0  0  0  0  0  0  0  0  0
   -0.0351    4.3550   -0.1440 C   0  0  0  0  0  0  0  0  0  0  0  0
    1.3697    3.7968    0.1015 C   0  0  0  0  0  0  0  0  0  0  0  0
    0.1959    2.2200   -2.3237 H   0  0  0  0  0  0  0  0  0  0  0  0
   -1.9704    2.0556   -3.4644 H   0  0  0  0  0  0  0  0  0  0  0  0
   -4.2331    1.0766   -3.6280 H   0  0  0  0  0  0  0  0  0  0  0  0
   -5.9333   -0.5392   -2.8258 H   0  0  0  0  0  0  0  0  0  0  0  0
   -5.4226   -2.0294   -0.8877 H   0  0  0  0  0  0  0  0  0  0  0  0
   -3.2300   -1.9023    0.2395 H   0  0  0  0  0  0  0  0  0  0  0  0
   -1.0565   -1.6036    4.0799 H   0  0  0  0  0  0  0  0  0  0  0  0
    0.2629   -3.6070    3.5569 H   0  0  0  0  0  0  0  0  0  0  0  0
    1.3464   -5.0919    1.9074 H   0  0  0  0  0  0  0  0  0  0  0  0
    1.8946   -5.6441   -0.4469 H   0  0  0  0  0  0  0  0  0  0  0  0
    1.1182   -4.1444   -2.2900 H   0  0  0  0  0  0  0  0  0  0  0  0
   -0.1534   -2.0973   -1.7847 H   0  0  0  0  0  0  0  0  0  0  0  0
   -2.9874   -0.3816    3.9255 H   0  0  0  0  0  0  0  0  0  0  0  0
   -1.5445    0.6512    4.2126 H   0  0  0  0  0  0  0  0  0  0  0  0
   -3.0090    1.3437    3.4518 H   0  0  0  0  0  0  0  0  0  0  0  0
    2.1728    1.8124   -2.0048 H   0  0  0  0  0  0  0  0  0  0  0  0
    1.7141   -0.6408   -2.4094 H   0  0  0  0  0  0  0  0  0  0  0  0
    3.2758   -0.0763   -3.0148 H   0  0  0  0  0  0  0  0  0  0  0  0
    2.8205   -1.6367   -0.4086 H   0  0  0  0  0  0  0  0  0  0  0  0
    3.5421   -2.2668   -1.8898 H   0  0  0  0  0  0  0  0  0  0  0  0
    5.2933   -1.6369   -0.1966 H   0  0  0  0  0  0  0  0  0  0  0  0
    5.4497   -0.6850   -1.6799 H   0  0  0  0  0  0  0  0  0  0  0  0
    4.1126    0.2436    0.9190 H   0  0  0  0  0  0  0  0  0  0  0  0
    5.6676    0.8045    0.2870 H   0  0  0  0  0  0  0  0  0  0  0  0
    4.5604    1.7221   -1.7345 H   0  0  0  0  0  0  0  0  0  0  0  0
    3.8866    2.4544   -0.2814 H   0  0  0  0  0  0  0  0  0  0  0  0
    2.4444    2.4268    1.3422 H   0  0  0  0  0  0  0  0  0  0  0  0
    0.4188    1.5724    2.6249 H   0  0  0  0  0  0  0  0  0  0  0  0
    0.9350    3.2448    2.8984 H   0  0  0  0  0  0  0  0  0  0  0  0
   -1.4376    2.3868    1.1604 H   0  0  0  0  0  0  0  0  0  0  0  0
   -1.5067    3.1563    2.7508 H   0  0  0  0  0  0  0  0  0  0  0  0
   -1.8364    4.8595    0.9521 H   0  0  0  0  0  0  0  0  0  0  0  0
   -0.3351    5.1784    1.8351 H   0  0  0  0  0  0  0  0  0  0  0  0
   -0.5927    3.7045   -0.8334 H   0  0  0  0  0  0  0  0  0  0  0  0
    0.0490    5.3379   -0.6333 H   0  0  0  0  0  0  0  0  0  0  0  0
    1.9383    4.5646    0.6575 H   0  0  0  0  0  0  0  0  0  0  0  0
    1.9017    3.6660   -0.8549 H   0  0  0  0  0  0  0  0  0  0  0  0
  1  3  1  0  0  0  0
  1 24  1  0  0  0  0
  1 30  1  0  0  0  0
  2  3  2  0  0  0  0
  2 11  1  0  0  0  0
  2 12  1  0  0  0  0
  3  4  1  0  0  0  0
  4  5  2  0  0  0  0
  4 36  1  0  0  0  0
  5  6  1  0  0  0  0
  5 37  1  0  0  0  0
  6  7  2  0  0  0  0
  6 11  1  0  0  0  0
  7  8  1  0  0  0  0
  7 38  1  0  0  0  0
  8  9  2  0  0  0  0
  8 39  1  0  0  0  0
  9 10  1  0  0  0  0
  9 40  1  0  0  0  0
 10 11  2  0  0  0  0
 10 41  1  0  0  0  0
 12 13  2  0  0  0  0
 12 21  1  0  0  0  0
 13 14  1  0  0  0  0
 13 22  1  0  0  0  0
 14 15  2  0  0  0  0
 14 42  1  0  0  0  0
 15 16  1  0  0  0  0
 15 43  1  0  0  0  0
 16 17  2  0  0  0  0
 16 21  1  0  0  0  0
 17 18  1  0  0  0  0
 17 44  1  0  0  0  0
 18 19  2  0  0  0  0
 18 45  1  0  0  0  0
 19 20  1  0  0  0  0
 19 46  1  0  0  0  0
 20 21  2  0  0  0  0
 20 47  1  0  0  0  0
 22 23  1  0  0  0  0
 23 48  1  0  0  0  0
 23 49  1  0  0  0  0
 23 50  1  0  0  0  0
 24 25  1  0  0  0  0
 24 29  1  0  0  0  0
 24 51  1  0  0  0  0
 25 26  1  0  0  0  0
 25 52  1  0  0  0  0
 25 53  1  0  0  0  0
 26 27  1  0  0  0  0
 26 54  1  0  0  0  0
 26 55  1  0  0  0  0
 27 28  1  0  0  0  0
 27 56  1  0  0  0  0
 27 57  1  0  0  0  0
 28 29  1  0  0  0  0
 28 58  1  0  0  0  0
 28 59  1  0  0  0  0
 29 60  1  0  0  0  0
 29 61  1  0  0  0  0
 30 31  1  0  0  0  0
 30 35  1  0  0  0  0
 30 62  1  0  0  0  0
 31 32  1  0  0  0  0
 31 63  1  0  0  0  0
 31 64  1  0  0  0  0
 32 33  1  0  0  0  0
 32 65  1  0  0  0  0
 32 66  1  0  0  0  0
 33 34  1  0  0  0  0
 33 67  1  0  0  0  0
 33 68  1  0  0  0  0
 34 35  1  0  0  0  0
 34 69  1  0  0  0  0
 34 70  1  0  0  0  0
 35 71  1  0  0  0  0
 35 72  1  0  0  0  0
M  END
$$$$
