Title Card Required
 OpenBabel03192317533D

 76 82  0  0  0  0  0  0  0  0999 V2000
    0.8728   -0.6788   -0.6921 O   0  0  0  0  0  0  0  0  0  0  0  0
   -0.0733   -1.6268    0.2085 P   0  0  0  0  0  0  0  0  0  0  0  0
   -1.0093   -0.5322    0.9495 O   0  0  0  0  0  0  0  0  0  0  0  0
   -1.5258    0.5176    0.2178 C   0  0  0  0  0  0  0  0  0  0  0  0
   -0.6943    1.5624   -0.1345 C   0  0  0  0  0  0  0  0  0  0  0  0
    0.7423    1.5093    0.2555 C   0  0  0  0  0  0  0  0  0  0  0  0
    1.4901    0.3894   -0.0612 C   0  0  0  0  0  0  0  0  0  0  0  0
   -2.9022    0.4490   -0.1370 C   0  0  0  0  0  0  0  0  0  0  0  0
   -3.4362    1.5142   -0.8216 C   0  0  0  0  0  0  0  0  0  0  0  0
   -2.6352    2.6128   -1.2327 C   0  0  0  0  0  0  0  0  0  0  0  0
   -3.1929    3.6779   -1.9919 C   0  0  0  0  0  0  0  0  0  0  0  0
   -2.4038    4.6995   -2.4578 C   0  0  0  0  0  0  0  0  0  0  0  0
   -1.0128    4.6909   -2.1941 C   0  0  0  0  0  0  0  0  0  0  0  0
   -0.4469    3.6835   -1.4503 C   0  0  0  0  0  0  0  0  0  0  0  0
   -1.2428    2.6271   -0.9260 C   0  0  0  0  0  0  0  0  0  0  0  0
    2.8794    0.2664    0.2114 C   0  0  0  0  0  0  0  0  0  0  0  0
    3.4989    1.3214    0.8387 C   0  0  0  0  0  0  0  0  0  0  0  0
    2.7785    2.4722    1.2550 C   0  0  0  0  0  0  0  0  0  0  0  0
    3.4235    3.5235    1.9633 C   0  0  0  0  0  0  0  0  0  0  0  0
    2.7143    4.6097    2.4106 C   0  0  0  0  0  0  0  0  0  0  0  0
    1.3198    4.6865    2.1763 C   0  0  0  0  0  0  0  0  0  0  0  0
    0.6709    3.6941    1.4825 C   0  0  0  0  0  0  0  0  0  0  0  0
    1.3826    2.5671    0.9838 C   0  0  0  0  0  0  0  0  0  0  0  0
    3.6220   -0.9624   -0.1973 C   0  0  0  0  0  0  0  0  0  0  0  0
    3.9369   -1.1538   -1.5540 C   0  0  0  0  0  0  0  0  0  0  0  0
    3.5009   -0.1503   -2.5897 C   0  0  0  0  0  0  0  0  0  0  0  0
    4.6489   -2.2955   -1.9273 C   0  0  0  0  0  0  0  0  0  0  0  0
    5.0466   -3.2499   -0.9894 C   0  0  0  0  0  0  0  0  0  0  0  0
    5.8416   -4.4608   -1.4038 C   0  0  0  0  0  0  0  0  0  0  0  0
    4.7059   -3.0440    0.3487 C   0  0  0  0  0  0  0  0  0  0  0  0
    3.9966   -1.9152    0.7664 C   0  0  0  0  0  0  0  0  0  0  0  0
    3.6022   -1.7575    2.2121 C   0  0  0  0  0  0  0  0  0  0  0  0
   -3.6794   -0.7853    0.1780 C   0  0  0  0  0  0  0  0  0  0  0  0
   -3.9916   -1.1073    1.5122 C   0  0  0  0  0  0  0  0  0  0  0  0
   -3.6003   -0.1875    2.6388 C   0  0  0  0  0  0  0  0  0  0  0  0
   -4.6641   -2.3015    1.7796 C   0  0  0  0  0  0  0  0  0  0  0  0
   -5.0279   -3.1870    0.7627 C   0  0  0  0  0  0  0  0  0  0  0  0
   -5.7679   -4.4604    1.0780 C   0  0  0  0  0  0  0  0  0  0  0  0
   -4.7113   -2.8438   -0.5539 C   0  0  0  0  0  0  0  0  0  0  0  0
   -4.0512   -1.6512   -0.8693 C   0  0  0  0  0  0  0  0  0  0  0  0
   -3.7324   -1.3293   -2.3091 C   0  0  0  0  0  0  0  0  0  0  0  0
   -0.9615   -2.2332   -0.9680 O   0  0  0  0  0  0  0  0  0  0  0  0
    0.5358   -2.5509    1.1643 O   0  0  0  0  0  0  0  0  0  0  0  0
   -4.4953    1.5030   -1.0905 H   0  0  0  0  0  0  0  0  0  0  0  0
   -4.2633    3.6587   -2.2069 H   0  0  0  0  0  0  0  0  0  0  0  0
   -2.8417    5.5092   -3.0430 H   0  0  0  0  0  0  0  0  0  0  0  0
   -0.3820    5.4886   -2.5890 H   0  0  0  0  0  0  0  0  0  0  0  0
    0.6265    3.6846   -1.2619 H   0  0  0  0  0  0  0  0  0  0  0  0
    4.5704    1.2633    1.0449 H   0  0  0  0  0  0  0  0  0  0  0  0
    4.4954    3.4412    2.1537 H   0  0  0  0  0  0  0  0  0  0  0  0
    3.2183    5.4080    2.9571 H   0  0  0  0  0  0  0  0  0  0  0  0
    0.7538    5.5387    2.5552 H   0  0  0  0  0  0  0  0  0  0  0  0
   -0.4045    3.7596    1.3171 H   0  0  0  0  0  0  0  0  0  0  0  0
    3.9088   -0.4018   -3.5771 H   0  0  0  0  0  0  0  0  0  0  0  0
    2.4029   -0.1283   -2.6677 H   0  0  0  0  0  0  0  0  0  0  0  0
    3.8300    0.8654   -2.3252 H   0  0  0  0  0  0  0  0  0  0  0  0
    4.8963   -2.4435   -2.9818 H   0  0  0  0  0  0  0  0  0  0  0  0
    6.9187   -4.2937   -1.2470 H   0  0  0  0  0  0  0  0  0  0  0  0
    5.5567   -5.3438   -0.8154 H   0  0  0  0  0  0  0  0  0  0  0  0
    5.6923   -4.6908   -2.4672 H   0  0  0  0  0  0  0  0  0  0  0  0
    4.9925   -3.7901    1.0946 H   0  0  0  0  0  0  0  0  0  0  0  0
    4.0314   -2.5639    2.8205 H   0  0  0  0  0  0  0  0  0  0  0  0
    3.9363   -0.7960    2.6261 H   0  0  0  0  0  0  0  0  0  0  0  0
    2.5068   -1.8053    2.3035 H   0  0  0  0  0  0  0  0  0  0  0  0
   -4.0998   -0.4772    3.5720 H   0  0  0  0  0  0  0  0  0  0  0  0
   -2.5130   -0.2231    2.8036 H   0  0  0  0  0  0  0  0  0  0  0  0
   -3.8649    0.8549    2.4101 H   0  0  0  0  0  0  0  0  0  0  0  0
   -4.9044   -2.5497    2.8170 H   0  0  0  0  0  0  0  0  0  0  0  0
   -6.8459   -4.2664    1.1902 H   0  0  0  0  0  0  0  0  0  0  0  0
   -5.6453   -5.2030    0.2784 H   0  0  0  0  0  0  0  0  0  0  0  0
   -5.4133   -4.9025    2.0191 H   0  0  0  0  0  0  0  0  0  0  0  0
   -4.9903   -3.5219   -1.3650 H   0  0  0  0  0  0  0  0  0  0  0  0
   -3.9449   -2.1930   -2.9530 H   0  0  0  0  0  0  0  0  0  0  0  0
   -4.3345   -0.4840   -2.6734 H   0  0  0  0  0  0  0  0  0  0  0  0
   -2.6754   -1.0538   -2.4296 H   0  0  0  0  0  0  0  0  0  0  0  0
   -1.6181   -2.8726   -0.6500 H   0  0  0  0  0  0  0  0  0  0  0  0
  1  2  1  0  0  0  0
  1  7  1  0  0  0  0
  2  3  1  0  0  0  0
  2 42  1  0  0  0  0
  2 43  2  0  0  0  0
  3  4  1  0  0  0  0
  4  5  2  0  0  0  0
  4  8  1  0  0  0  0
  5  6  1  0  0  0  0
  5 15  1  0  0  0  0
  6  7  2  0  0  0  0
  6 23  1  0  0  0  0
  7 16  1  0  0  0  0
  8  9  2  0  0  0  0
  8 33  1  0  0  0  0
  9 10  1  0  0  0  0
  9 44  1  0  0  0  0
 10 11  2  0  0  0  0
 10 15  1  0  0  0  0
 11 12  1  0  0  0  0
 11 45  1  0  0  0  0
 12 13  2  0  0  0  0
 12 46  1  0  0  0  0
 13 14  1  0  0  0  0
 13 47  1  0  0  0  0
 14 15  2  0  0  0  0
 14 48  1  0  0  0  0
 16 17  2  0  0  0  0
 16 24  1  0  0  0  0
 17 18  1  0  0  0  0
 17 49  1  0  0  0  0
 18 19  2  0  0  0  0
 18 23  1  0  0  0  0
 19 20  1  0  0  0  0
 19 50  1  0  0  0  0
 20 21  2  0  0  0  0
 20 51  1  0  0  0  0
 21 22  1  0  0  0  0
 21 52  1  0  0  0  0
 22 23  2  0  0  0  0
 22 53  1  0  0  0  0
 24 25  2  0  0  0  0
 24 31  1  0  0  0  0
 25 26  1  0  0  0  0
 25 27  1  0  0  0  0
 26 54  1  0  0  0  0
 26 55  1  0  0  0  0
 26 56  1  0  0  0  0
 27 28  2  0  0  0  0
 27 57  1  0  0  0  0
 28 29  1  0  0  0  0
 28 30  1  0  0  0  0
 29 58  1  0  0  0  0
 29 59  1  0  0  0  0
 29 60  1  0  0  0  0
 30 31  2  0  0  0  0
 30 61  1  0  0  0  0
 31 32  1  0  0  0  0
 32 62  1  0  0  0  0
 32 63  1  0  0  0  0
 32 64  1  0  0  0  0
 33 34  2  0  0  0  0
 33 40  1  0  0  0  0
 34 35  1  0  0  0  0
 34 36  1  0  0  0  0
 35 65  1  0  0  0  0
 35 66  1  0  0  0  0
 35 67  1  0  0  0  0
 36 37  2  0  0  0  0
 36 68  1  0  0  0  0
 37 38  1  0  0  0  0
 37 39  1  0  0  0  0
 38 69  1  0  0  0  0
 38 70  1  0  0  0  0
 38 71  1  0  0  0  0
 39 40  2  0  0  0  0
 39 72  1  0  0  0  0
 40 41  1  0  0  0  0
 41 73  1  0  0  0  0
 41 74  1  0  0  0  0
 41 75  1  0  0  0  0
 42 76  1  0  0  0  0
M  END
$$$$
