Title Card Required
 OpenBabel03192317503D

 58 64  0  0  0  0  0  0  0  0999 V2000
    0.8778   -0.9343   -0.9925 O   0  0  0  0  0  0  0  0  0  0  0  0
    0.0604   -2.0179   -0.1062 P   0  0  0  0  0  0  0  0  0  0  0  0
   -0.8039   -1.0415    0.8478 O   0  0  0  0  0  0  0  0  0  0  0  0
   -1.4842    0.0110    0.2615 C   0  0  0  0  0  0  0  0  0  0  0  0
   -0.7696    1.1212   -0.1494 C   0  0  0  0  0  0  0  0  0  0  0  0
    0.6998    1.1702    0.0924 C   0  0  0  0  0  0  0  0  0  0  0  0
    1.4846    0.1221   -0.3457 C   0  0  0  0  0  0  0  0  0  0  0  0
   -2.8927   -0.1209    0.0928 C   0  0  0  0  0  0  0  0  0  0  0  0
   -3.5574    0.9243   -0.5088 C   0  0  0  0  0  0  0  0  0  0  0  0
   -2.8774    2.0697   -0.9953 C   0  0  0  0  0  0  0  0  0  0  0  0
   -3.5810    3.1104   -1.6625 C   0  0  0  0  0  0  0  0  0  0  0  0
   -2.9121    4.1888   -2.1842 C   0  0  0  0  0  0  0  0  0  0  0  0
   -1.5027    4.2670   -2.0698 C   0  0  0  0  0  0  0  0  0  0  0  0
   -0.7971    3.2853   -1.4169 C   0  0  0  0  0  0  0  0  0  0  0  0
   -1.4648    2.1684   -0.8410 C   0  0  0  0  0  0  0  0  0  0  0  0
    2.8911    0.0499   -0.1294 C   0  0  0  0  0  0  0  0  0  0  0  0
    3.4879    1.1116    0.5123 C   0  0  0  0  0  0  0  0  0  0  0  0
    2.7373    2.2132    0.9985 C   0  0  0  0  0  0  0  0  0  0  0  0
    3.3712    3.2786    1.6956 C   0  0  0  0  0  0  0  0  0  0  0  0
    2.6353    4.3082    2.2261 C   0  0  0  0  0  0  0  0  0  0  0  0
    1.2256    4.3082    2.0933 C   0  0  0  0  0  0  0  0  0  0  0  0
    0.5858    3.3008    1.4122 C   0  0  0  0  0  0  0  0  0  0  0  0
    1.3233    2.2365    0.8228 C   0  0  0  0  0  0  0  0  0  0  0  0
    3.6675   -1.1551   -0.5220 C   0  0  0  0  0  0  0  0  0  0  0  0
    3.5021   -1.7722   -1.7709 C   0  0  0  0  0  0  0  0  0  0  0  0
    4.2473   -2.9008   -2.1051 C   0  0  0  0  0  0  0  0  0  0  0  0
    5.1650   -3.4342   -1.1996 C   0  0  0  0  0  0  0  0  0  0  0  0
    5.3351   -2.8299    0.0452 C   0  0  0  0  0  0  0  0  0  0  0  0
    4.5906   -1.7010    0.3814 C   0  0  0  0  0  0  0  0  0  0  0  0
   -3.6196   -1.3451    0.5191 C   0  0  0  0  0  0  0  0  0  0  0  0
   -3.4031   -1.9365    1.7717 C   0  0  0  0  0  0  0  0  0  0  0  0
   -4.1343   -3.0572    2.1567 C   0  0  0  0  0  0  0  0  0  0  0  0
   -5.0848   -3.6086    1.2977 C   0  0  0  0  0  0  0  0  0  0  0  0
   -5.3008   -3.0326    0.0474 C   0  0  0  0  0  0  0  0  0  0  0  0
   -4.5726   -1.9099   -0.3383 C   0  0  0  0  0  0  0  0  0  0  0  0
    1.0944   -2.5467    0.9879 O   0  0  0  0  0  0  0  0  0  0  0  0
   -0.6201   -3.0113   -0.9328 O   0  0  0  0  0  0  0  0  0  0  0  0
   -4.6416    0.8684   -0.6276 H   0  0  0  0  0  0  0  0  0  0  0  0
   -4.6652    3.0260   -1.7608 H   0  0  0  0  0  0  0  0  0  0  0  0
   -3.4593    4.9790   -2.7001 H   0  0  0  0  0  0  0  0  0  0  0  0
   -0.9714    5.1113   -2.5114 H   0  0  0  0  0  0  0  0  0  0  0  0
    0.2885    3.3515   -1.3452 H   0  0  0  0  0  0  0  0  0  0  0  0
    4.5689    1.1036    0.6688 H   0  0  0  0  0  0  0  0  0  0  0  0
    4.4568    3.2539    1.8093 H   0  0  0  0  0  0  0  0  0  0  0  0
    3.1310    5.1188    2.7619 H   0  0  0  0  0  0  0  0  0  0  0  0
    0.6408    5.1127    2.5415 H   0  0  0  0  0  0  0  0  0  0  0  0
   -0.5005    3.3077    1.3262 H   0  0  0  0  0  0  0  0  0  0  0  0
    2.7859   -1.3628   -2.4832 H   0  0  0  0  0  0  0  0  0  0  0  0
    4.1095   -3.3661   -3.0823 H   0  0  0  0  0  0  0  0  0  0  0  0
    5.7445   -4.3202   -1.4635 H   0  0  0  0  0  0  0  0  0  0  0  0
    6.0451   -3.2435    0.7633 H   0  0  0  0  0  0  0  0  0  0  0  0
    4.7056   -1.2463    1.3674 H   0  0  0  0  0  0  0  0  0  0  0  0
   -2.6625   -1.5096    2.4485 H   0  0  0  0  0  0  0  0  0  0  0  0
   -3.9612   -3.5032    3.1375 H   0  0  0  0  0  0  0  0  0  0  0  0
   -5.6525   -4.4898    1.6004 H   0  0  0  0  0  0  0  0  0  0  0  0
   -6.0321   -3.4644   -0.6375 H   0  0  0  0  0  0  0  0  0  0  0  0
   -4.7244   -1.4753   -1.3282 H   0  0  0  0  0  0  0  0  0  0  0  0
    1.5295   -3.3610    0.6977 H   0  0  0  0  0  0  0  0  0  0  0  0
  1  2  1  0  0  0  0
  1  7  1  0  0  0  0
  2  3  1  0  0  0  0
  2 36  1  0  0  0  0
  2 37  2  0  0  0  0
  3  4  1  0  0  0  0
  4  5  2  0  0  0  0
  4  8  1  0  0  0  0
  5  6  1  0  0  0  0
  5 15  1  0  0  0  0
  6  7  2  0  0  0  0
  6 23  1  0  0  0  0
  7 16  1  0  0  0  0
  8  9  2  0  0  0  0
  8 30  1  0  0  0  0
  9 10  1  0  0  0  0
  9 38  1  0  0  0  0
 10 11  2  0  0  0  0
 10 15  1  0  0  0  0
 11 12  1  0  0  0  0
 11 39  1  0  0  0  0
 12 13  2  0  0  0  0
 12 40  1  0  0  0  0
 13 14  1  0  0  0  0
 13 41  1  0  0  0  0
 14 15  2  0  0  0  0
 14 42  1  0  0  0  0
 16 17  2  0  0  0  0
 16 24  1  0  0  0  0
 17 18  1  0  0  0  0
 17 43  1  0  0  0  0
 18 19  2  0  0  0  0
 18 23  1  0  0  0  0
 19 20  1  0  0  0  0
 19 44  1  0  0  0  0
 20 21  2  0  0  0  0
 20 45  1  0  0  0  0
 21 22  1  0  0  0  0
 21 46  1  0  0  0  0
 22 23  2  0  0  0  0
 22 47  1  0  0  0  0
 24 25  2  0  0  0  0
 24 29  1  0  0  0  0
 25 26  1  0  0  0  0
 25 48  1  0  0  0  0
 26 27  2  0  0  0  0
 26 49  1  0  0  0  0
 27 28  1  0  0  0  0
 27 50  1  0  0  0  0
 28 29  2  0  0  0  0
 28 51  1  0  0  0  0
 29 52  1  0  0  0  0
 30 31  2  0  0  0  0
 30 35  1  0  0  0  0
 31 32  1  0  0  0  0
 31 53  1  0  0  0  0
 32 33  2  0  0  0  0
 32 54  1  0  0  0  0
 33 34  1  0  0  0  0
 33 55  1  0  0  0  0
 34 35  2  0  0  0  0
 34 56  1  0  0  0  0
 35 57  1  0  0  0  0
 36 58  1  0  0  0  0
M  END
$$$$
