Title Card Required
 OpenBabel03192317413D

 66 72  0  0  0  0  0  0  0  0999 V2000
    0.9470   -0.3791   -0.9463 O   0  0  0  0  0  0  0  0  0  0  0  0
    0.0558   -1.4652   -0.1387 P   0  0  0  0  0  0  0  0  0  0  0  0
   -0.8773   -0.4936    0.7534 O   0  0  0  0  0  0  0  0  0  0  0  0
   -1.5031    0.5695    0.1259 C   0  0  0  0  0  0  0  0  0  0  0  0
   -0.7499    1.6774   -0.2151 C   0  0  0  0  0  0  0  0  0  0  0  0
    0.6948    1.7130    0.1475 C   0  0  0  0  0  0  0  0  0  0  0  0
    1.5064    0.6653   -0.2388 C   0  0  0  0  0  0  0  0  0  0  0  0
   -2.8959    0.4497   -0.1523 C   0  0  0  0  0  0  0  0  0  0  0  0
   -3.4999    1.5017   -0.8051 C   0  0  0  0  0  0  0  0  0  0  0  0
   -2.7731    2.6433   -1.2302 C   0  0  0  0  0  0  0  0  0  0  0  0
   -3.4101    3.6929   -1.9484 C   0  0  0  0  0  0  0  0  0  0  0  0
   -2.6935    4.7724   -2.4000 C   0  0  0  0  0  0  0  0  0  0  0  0
   -1.2998    4.8448   -2.1597 C   0  0  0  0  0  0  0  0  0  0  0  0
   -0.6589    3.8540   -1.4558 C   0  0  0  0  0  0  0  0  0  0  0  0
   -1.3788    2.7345   -0.9532 C   0  0  0  0  0  0  0  0  0  0  0  0
    2.8905    0.5781    0.0901 C   0  0  0  0  0  0  0  0  0  0  0  0
    3.4370    1.6234    0.8003 C   0  0  0  0  0  0  0  0  0  0  0  0
    2.6543    2.7207    1.2445 C   0  0  0  0  0  0  0  0  0  0  0  0
    3.2316    3.7661    2.0166 C   0  0  0  0  0  0  0  0  0  0  0  0
    2.4600    4.7925    2.5009 C   0  0  0  0  0  0  0  0  0  0  0  0
    1.0681    4.8107    2.2422 C   0  0  0  0  0  0  0  0  0  0  0  0
    0.4836    3.8228    1.4864 C   0  0  0  0  0  0  0  0  0  0  0  0
    1.2614    2.7616    0.9462 C   0  0  0  0  0  0  0  0  0  0  0  0
    3.6860   -0.6243   -0.2636 C   0  0  0  0  0  0  0  0  0  0  0  0
    3.6180   -1.2223   -1.5352 C   0  0  0  0  0  0  0  0  0  0  0  0
    4.3741   -2.3429   -1.8371 C   0  0  0  0  0  0  0  0  0  0  0  0
    5.2227   -2.9103   -0.8741 C   0  0  0  0  0  0  0  0  0  0  0  0
    5.2974   -2.3336    0.3975 C   0  0  0  0  0  0  0  0  0  0  0  0
    4.5314   -1.2024    0.6867 C   0  0  0  0  0  0  0  0  0  0  0  0
    5.9167   -4.0022   -1.2572 O   0  0  0  0  0  0  0  0  0  0  0  0
    6.7675   -4.6145   -0.3245 C   0  0  0  0  0  0  0  0  0  0  0  0
   -3.6595   -0.7651    0.2257 C   0  0  0  0  0  0  0  0  0  0  0  0
   -3.5354   -1.3546    1.4964 C   0  0  0  0  0  0  0  0  0  0  0  0
   -4.2886   -2.4630    1.8430 C   0  0  0  0  0  0  0  0  0  0  0  0
   -5.1862   -3.0278    0.9246 C   0  0  0  0  0  0  0  0  0  0  0  0
   -5.3173   -2.4589   -0.3452 C   0  0  0  0  0  0  0  0  0  0  0  0
   -4.5554   -1.3383   -0.6787 C   0  0  0  0  0  0  0  0  0  0  0  0
   -5.8725   -4.1105    1.3488 O   0  0  0  0  0  0  0  0  0  0  0  0
   -6.7531   -4.7342    0.4530 C   0  0  0  0  0  0  0  0  0  0  0  0
    0.9957   -2.0105    1.0303 O   0  0  0  0  0  0  0  0  0  0  0  0
   -0.5609   -2.4483   -1.0256 O   0  0  0  0  0  0  0  0  0  0  0  0
   -4.5720    1.4566   -1.0087 H   0  0  0  0  0  0  0  0  0  0  0  0
   -4.4818    3.6153   -2.1422 H   0  0  0  0  0  0  0  0  0  0  0  0
   -3.1915    5.5695   -2.9539 H   0  0  0  0  0  0  0  0  0  0  0  0
   -0.7283    5.6921   -2.5412 H   0  0  0  0  0  0  0  0  0  0  0  0
    0.4158    3.9158   -1.2849 H   0  0  0  0  0  0  0  0  0  0  0  0
    4.5016    1.6055    1.0444 H   0  0  0  0  0  0  0  0  0  0  0  0
    4.3027    3.7286    2.2255 H   0  0  0  0  0  0  0  0  0  0  0  0
    2.9128    5.5869    3.0958 H   0  0  0  0  0  0  0  0  0  0  0  0
    0.4521    5.6133    2.6501 H   0  0  0  0  0  0  0  0  0  0  0  0
   -0.5902    3.8434    1.3008 H   0  0  0  0  0  0  0  0  0  0  0  0
    2.9624   -0.7985   -2.2958 H   0  0  0  0  0  0  0  0  0  0  0  0
    4.3301   -2.8079   -2.8222 H   0  0  0  0  0  0  0  0  0  0  0  0
    5.9377   -2.7540    1.1714 H   0  0  0  0  0  0  0  0  0  0  0  0
    4.5784   -0.7748    1.6903 H   0  0  0  0  0  0  0  0  0  0  0  0
    7.5613   -3.9264    0.0108 H   0  0  0  0  0  0  0  0  0  0  0  0
    6.2095   -4.9722    0.5569 H   0  0  0  0  0  0  0  0  0  0  0  0
    7.2261   -5.4710   -0.8305 H   0  0  0  0  0  0  0  0  0  0  0  0
   -2.8418   -0.9297    2.2224 H   0  0  0  0  0  0  0  0  0  0  0  0
   -4.2034   -2.9225    2.8280 H   0  0  0  0  0  0  0  0  0  0  0  0
   -5.9948   -2.8805   -1.0861 H   0  0  0  0  0  0  0  0  0  0  0  0
   -4.6476   -0.9155   -1.6811 H   0  0  0  0  0  0  0  0  0  0  0  0
   -7.5642   -4.0542    0.1431 H   0  0  0  0  0  0  0  0  0  0  0  0
   -6.2259   -5.0942   -0.4461 H   0  0  0  0  0  0  0  0  0  0  0  0
   -7.1872   -5.5903    0.9813 H   0  0  0  0  0  0  0  0  0  0  0  0
    1.4544   -2.8195    0.7628 H   0  0  0  0  0  0  0  0  0  0  0  0
  1  2  1  0  0  0  0
  1  7  1  0  0  0  0
  2  3  1  0  0  0  0
  2 40  1  0  0  0  0
  2 41  2  0  0  0  0
  3  4  1  0  0  0  0
  4  5  2  0  0  0  0
  4  8  1  0  0  0  0
  5  6  1  0  0  0  0
  5 15  1  0  0  0  0
  6  7  2  0  0  0  0
  6 23  1  0  0  0  0
  7 16  1  0  0  0  0
  8  9  2  0  0  0  0
  8 32  1  0  0  0  0
  9 10  1  0  0  0  0
  9 42  1  0  0  0  0
 10 11  2  0  0  0  0
 10 15  1  0  0  0  0
 11 12  1  0  0  0  0
 11 43  1  0  0  0  0
 12 13  2  0  0  0  0
 12 44  1  0  0  0  0
 13 14  1  0  0  0  0
 13 45  1  0  0  0  0
 14 15  2  0  0  0  0
 14 46  1  0  0  0  0
 16 17  2  0  0  0  0
 16 24  1  0  0  0  0
 17 18  1  0  0  0  0
 17 47  1  0  0  0  0
 18 19  2  0  0  0  0
 18 23  1  0  0  0  0
 19 20  1  0  0  0  0
 19 48  1  0  0  0  0
 20 21  2  0  0  0  0
 20 49  1  0  0  0  0
 21 22  1  0  0  0  0
 21 50  1  0  0  0  0
 22 23  2  0  0  0  0
 22 51  1  0  0  0  0
 24 25  2  0  0  0  0
 24 29  1  0  0  0  0
 25 26  1  0  0  0  0
 25 52  1  0  0  0  0
 26 27  2  0  0  0  0
 26 53  1  0  0  0  0
 27 28  1  0  0  0  0
 27 30  1  0  0  0  0
 28 29  2  0  0  0  0
 28 54  1  0  0  0  0
 29 55  1  0  0  0  0
 30 31  1  0  0  0  0
 31 56  1  0  0  0  0
 31 57  1  0  0  0  0
 31 58  1  0  0  0  0
 32 33  2  0  0  0  0
 32 37  1  0  0  0  0
 33 34  1  0  0  0  0
 33 59  1  0  0  0  0
 34 35  2  0  0  0  0
 34 60  1  0  0  0  0
 35 36  1  0  0  0  0
 35 38  1  0  0  0  0
 36 37  2  0  0  0  0
 36 61  1  0  0  0  0
 37 62  1  0  0  0  0
 38 39  1  0  0  0  0
 39 63  1  0  0  0  0
 39 64  1  0  0  0  0
 39 65  1  0  0  0  0
 40 66  1  0  0  0  0
M  END
$$$$
