Title Card Required
 OpenBabel03192317563D

 39 41  0  0  1  0  0  0  0  0999 V2000
   -0.7122   -0.6359    2.4267 C   0  0  0  0  0  0  0  0  0  0  0  0
    4.0710   -1.3301   -0.2738 C   0  0  0  0  0  0  0  0  0  0  0  0
    2.9585   -2.2282    0.2890 C   0  0  0  0  0  0  0  0  0  0  0  0
    1.9892   -0.4394   -0.6033 C   0  0  0  0  0  0  0  0  0  0  0  0
    1.2556    0.8484   -0.3116 C   0  0  0  0  0  0  0  0  0  0  0  0
   -0.1513    0.8644   -0.2304 C   0  0  0  0  0  0  0  0  0  0  0  0
   -1.6812   -1.0371    1.3228 C   0  0  1  0  0  0  0  0  0  0  0  0
   -2.7725   -0.1955   -1.0481 C   0  0  1  0  0  0  0  0  0  0  0  0
   -3.7502   -0.5939    0.0695 C   0  0  0  0  0  0  0  0  0  0  0  0
   -3.0543   -0.3631    1.4062 C   0  0  0  0  0  0  0  0  0  0  0  0
   -1.0658   -0.7419   -0.4473 P   0  0  1  0  0  0  0  0  0  0  0  0
    1.9083   -1.3142    0.4926 O   0  0  0  0  0  0  0  0  0  0  0  0
    3.3651   -0.2326   -0.8188 O   0  0  0  0  0  0  0  0  0  0  0  0
    1.9919    2.0187   -0.1178 C   0  0  0  0  0  0  0  0  0  0  0  0
    1.3478    3.2205    0.1618 C   0  0  0  0  0  0  0  0  0  0  0  0
   -0.0419    3.2532    0.2486 C   0  0  0  0  0  0  0  0  0  0  0  0
   -0.7775    2.0859    0.0538 C   0  0  0  0  0  0  0  0  0  0  0  0
   -3.1248   -0.8054   -2.4015 C   0  0  0  0  0  0  0  0  0  0  0  0
    0.2796   -1.0811    2.2707 H   0  0  0  0  0  0  0  0  0  0  0  0
   -1.0974   -0.9584    3.4066 H   0  0  0  0  0  0  0  0  0  0  0  0
   -0.5856    0.4570    2.4549 H   0  0  0  0  0  0  0  0  0  0  0  0
    4.7488   -0.9699    0.5153 H   0  0  0  0  0  0  0  0  0  0  0  0
    4.6649   -1.8337   -1.0513 H   0  0  0  0  0  0  0  0  0  0  0  0
    2.6615   -3.0018   -0.4419 H   0  0  0  0  0  0  0  0  0  0  0  0
    3.2093   -2.7073    1.2428 H   0  0  0  0  0  0  0  0  0  0  0  0
    1.5493   -0.9346   -1.4928 H   0  0  0  0  0  0  0  0  0  0  0  0
   -1.8317   -2.1295    1.3631 H   0  0  0  0  0  0  0  0  0  0  0  0
   -2.7708    0.8998   -1.1478 H   0  0  0  0  0  0  0  0  0  0  0  0
   -3.9919   -1.6666   -0.0320 H   0  0  0  0  0  0  0  0  0  0  0  0
   -4.7000   -0.0433   -0.0180 H   0  0  0  0  0  0  0  0  0  0  0  0
   -3.6395   -0.7500    2.2563 H   0  0  0  0  0  0  0  0  0  0  0  0
   -2.9155    0.7181    1.5791 H   0  0  0  0  0  0  0  0  0  0  0  0
    3.0771    1.9696   -0.2004 H   0  0  0  0  0  0  0  0  0  0  0  0
    1.9302    4.1313    0.3096 H   0  0  0  0  0  0  0  0  0  0  0  0
   -0.5587    4.1888    0.4690 H   0  0  0  0  0  0  0  0  0  0  0  0
   -1.8644    2.1367    0.1342 H   0  0  0  0  0  0  0  0  0  0  0  0
   -4.1434   -0.5182   -2.7064 H   0  0  0  0  0  0  0  0  0  0  0  0
   -2.4300   -0.4747   -3.1864 H   0  0  0  0  0  0  0  0  0  0  0  0
   -3.0804   -1.9045   -2.3579 H   0  0  0  0  0  0  0  0  0  0  0  0
  1  7  1  0  0  0  0
  1 19  1  0  0  0  0
  1 20  1  0  0  0  0
  1 21  1  0  0  0  0
  2  3  1  0  0  0  0
  2 13  1  0  0  0  0
  2 22  1  0  0  0  0
  2 23  1  0  0  0  0
  3 12  1  0  0  0  0
  3 24  1  0  0  0  0
  3 25  1  0  0  0  0
  4  5  1  0  0  0  0
  4 12  1  0  0  0  0
  4 13  1  0  0  0  0
  4 26  1  0  0  0  0
  5  6  2  0  0  0  0
  5 14  1  0  0  0  0
  6 17  1  0  0  0  0
  7 10  1  0  0  0  0
  7 11  1  0  0  0  0
  7 27  1  1  0  0  0
  8  9  1  0  0  0  0
  8 11  1  0  0  0  0
  8 18  1  0  0  0  0
  8 28  1  6  0  0  0
  9 10  1  0  0  0  0
  9 29  1  0  0  0  0
  9 30  1  0  0  0  0
 10 31  1  0  0  0  0
 10 32  1  0  0  0  0
 11  6  1  1  0  0  0
 14 15  2  0  0  0  0
 14 33  1  0  0  0  0
 15 16  1  0  0  0  0
 15 34  1  0  0  0  0
 16 17  2  0  0  0  0
 16 35  1  0  0  0  0
 17 36  1  0  0  0  0
 18 37  1  0  0  0  0
 18 38  1  0  0  0  0
 18 39  1  0  0  0  0
M  END
$$$$
