Title Card Required
 OpenBabel03192317553D

 21 21  0  0  1  0  0  0  0  0999 V2000
   -0.5626    0.7743    0.2845 C   0  0  1  0  0  0  0  0  0  0  0  0
   -0.6744   -0.6434   -0.2817 C   0  0  1  0  0  0  0  0  0  0  0  0
    0.5268   -1.4938    0.1330 C   0  0  0  0  0  0  0  0  0  0  0  0
    1.8433   -0.8343   -0.2799 C   0  0  0  0  0  0  0  0  0  0  0  0
    1.9462    0.5862    0.2786 C   0  0  0  0  0  0  0  0  0  0  0  0
    0.7426    1.4315   -0.1361 C   0  0  0  0  0  0  0  0  0  0  0  0
   -1.6438    1.5495   -0.1460 O   0  0  0  0  0  0  0  0  0  0  0  0
   -1.9818   -1.1708    0.0960 N   0  0  0  0  0  0  0  0  0  0  0  0
   -0.5622    0.6802    1.3955 H   0  0  0  0  0  0  0  0  0  0  0  0
   -0.6740   -0.5351   -1.3811 H   0  0  0  0  0  0  0  0  0  0  0  0
    0.5049   -1.6197    1.2313 H   0  0  0  0  0  0  0  0  0  0  0  0
    0.4363   -2.5015   -0.3036 H   0  0  0  0  0  0  0  0  0  0  0  0
    2.6976   -1.4436    0.0509 H   0  0  0  0  0  0  0  0  0  0  0  0
    1.8930   -0.7927   -1.3816 H   0  0  0  0  0  0  0  0  0  0  0  0
    1.9957    0.5378    1.3801 H   0  0  0  0  0  0  0  0  0  0  0  0
    2.8795    1.0624   -0.0561 H   0  0  0  0  0  0  0  0  0  0  0  0
    0.7179    1.5532   -1.2323 H   0  0  0  0  0  0  0  0  0  0  0  0
    0.7917    2.4417    0.2961 H   0  0  0  0  0  0  0  0  0  0  0  0
   -2.4038    0.9474   -0.1285 H   0  0  0  0  0  0  0  0  0  0  0  0
   -2.2122   -2.0029   -0.4424 H   0  0  0  0  0  0  0  0  0  0  0  0
   -1.9727   -1.4501    1.0776 H   0  0  0  0  0  0  0  0  0  0  0  0
  1  2  1  0  0  0  0
  1  6  1  0  0  0  0
  1  7  1  0  0  0  0
  1  9  1  1  0  0  0
  2  3  1  0  0  0  0
  2  8  1  0  0  0  0
  2 10  1  6  0  0  0
  3  4  1  0  0  0  0
  3 11  1  0  0  0  0
  3 12  1  0  0  0  0
  4  5  1  0  0  0  0
  4 13  1  0  0  0  0
  4 14  1  0  0  0  0
  5  6  1  0  0  0  0
  5 15  1  0  0  0  0
  5 16  1  0  0  0  0
  6 17  1  0  0  0  0
  6 18  1  0  0  0  0
  7 19  1  0  0  0  0
  8 20  1  0  0  0  0
  8 21  1  0  0  0  0
M  END
$$$$
