Title Card Required
 OpenBabel03192317493D

 78 86  0  0  0  0  0  0  0  0999 V2000
    0.9620    0.0279   -0.3433 O   0  0  0  0  0  0  0  0  0  0  0  0
   -0.2476   -0.8229    0.3256 P   0  0  0  0  0  0  0  0  0  0  0  0
   -1.2406    0.3596    0.8316 O   0  0  0  0  0  0  0  0  0  0  0  0
   -1.5631    1.3733   -0.0516 C   0  0  0  0  0  0  0  0  0  0  0  0
   -0.6139    2.3436   -0.2944 C   0  0  0  0  0  0  0  0  0  0  0  0
    0.7023    2.2777    0.4012 C   0  0  0  0  0  0  0  0  0  0  0  0
    1.4788    1.1358    0.2941 C   0  0  0  0  0  0  0  0  0  0  0  0
   -2.8424    1.3447   -0.6753 C   0  0  0  0  0  0  0  0  0  0  0  0
   -3.1293    2.3558   -1.5649 C   0  0  0  0  0  0  0  0  0  0  0  0
   -2.1853    3.3645   -1.8888 C   0  0  0  0  0  0  0  0  0  0  0  0
   -2.4925    4.3708   -2.8458 C   0  0  0  0  0  0  0  0  0  0  0  0
   -1.5590    5.3113   -3.2017 C   0  0  0  0  0  0  0  0  0  0  0  0
   -0.2682    5.2773   -2.6216 C   0  0  0  0  0  0  0  0  0  0  0  0
    0.0540    4.3272   -1.6826 C   0  0  0  0  0  0  0  0  0  0  0  0
   -0.9008    3.3561   -1.2714 C   0  0  0  0  0  0  0  0  0  0  0  0
    2.8312    1.0775    0.7512 C   0  0  0  0  0  0  0  0  0  0  0  0
    3.3230    2.1790    1.4177 C   0  0  0  0  0  0  0  0  0  0  0  0
    2.5296    3.3257    1.6746 C   0  0  0  0  0  0  0  0  0  0  0  0
    3.0362    4.4168    2.4329 C   0  0  0  0  0  0  0  0  0  0  0  0
    2.2554    5.5158    2.6885 C   0  0  0  0  0  0  0  0  0  0  0  0
    0.9265    5.5668    2.2010 C   0  0  0  0  0  0  0  0  0  0  0  0
    0.4124    4.5318    1.4575 C   0  0  0  0  0  0  0  0  0  0  0  0
    1.2023    3.3853    1.1638 C   0  0  0  0  0  0  0  0  0  0  0  0
    0.2812   -1.3176    1.7511 O   0  0  0  0  0  0  0  0  0  0  0  0
    5.5713   -2.1389   -0.1504 C   0  0  0  0  0  0  0  0  0  0  0  0
    5.8903   -0.8013   -0.4176 C   0  0  0  0  0  0  0  0  0  0  0  0
    4.9894    0.2179   -0.1288 C   0  0  0  0  0  0  0  0  0  0  0  0
    3.7367   -0.0613    0.4353 C   0  0  0  0  0  0  0  0  0  0  0  0
    3.4132   -1.3984    0.6989 C   0  0  0  0  0  0  0  0  0  0  0  0
    4.3180   -2.4153    0.4126 C   0  0  0  0  0  0  0  0  0  0  0  0
    6.5322   -3.2304   -0.4522 C   0  0  0  0  0  0  0  0  0  0  0  0
    7.9097   -3.0445   -0.2680 C   0  0  0  0  0  0  0  0  0  0  0  0
    8.8111   -4.0692   -0.5457 C   0  0  0  0  0  0  0  0  0  0  0  0
    8.3516   -5.3000   -1.0131 C   0  0  0  0  0  0  0  0  0  0  0  0
    6.9841   -5.4969   -1.2018 C   0  0  0  0  0  0  0  0  0  0  0  0
    6.0830   -4.4720   -0.9239 C   0  0  0  0  0  0  0  0  0  0  0  0
   -5.7097   -1.7891    0.0693 C   0  0  0  0  0  0  0  0  0  0  0  0
   -5.0508   -1.1567    1.1334 C   0  0  0  0  0  0  0  0  0  0  0  0
   -4.1144   -0.1554    0.9036 C   0  0  0  0  0  0  0  0  0  0  0  0
   -3.8137    0.2555   -0.4018 C   0  0  0  0  0  0  0  0  0  0  0  0
   -4.4703   -0.3735   -1.4663 C   0  0  0  0  0  0  0  0  0  0  0  0
   -5.4019   -1.3798   -1.2343 C   0  0  0  0  0  0  0  0  0  0  0  0
   -6.7021   -2.8663    0.3145 C   0  0  0  0  0  0  0  0  0  0  0  0
   -7.5912   -2.7932    1.3960 C   0  0  0  0  0  0  0  0  0  0  0  0
   -8.5262   -3.8013    1.6192 C   0  0  0  0  0  0  0  0  0  0  0  0
   -8.5887   -4.9018    0.7652 C   0  0  0  0  0  0  0  0  0  0  0  0
   -7.7072   -4.9879   -0.3118 C   0  0  0  0  0  0  0  0  0  0  0  0
   -6.7729   -3.9794   -0.5350 C   0  0  0  0  0  0  0  0  0  0  0  0
   -0.7623   -1.8602   -0.5559 O   0  0  0  0  0  0  0  0  0  0  0  0
   -4.1102    2.3808   -2.0448 H   0  0  0  0  0  0  0  0  0  0  0  0
   -3.4852    4.3713   -3.3001 H   0  0  0  0  0  0  0  0  0  0  0  0
   -1.8017    6.0757   -3.9410 H   0  0  0  0  0  0  0  0  0  0  0  0
    0.4812    6.0081   -2.9287 H   0  0  0  0  0  0  0  0  0  0  0  0
    1.0560    4.3061   -1.2547 H   0  0  0  0  0  0  0  0  0  0  0  0
    4.3529    2.1608    1.7812 H   0  0  0  0  0  0  0  0  0  0  0  0
    4.0581    4.3577    2.8127 H   0  0  0  0  0  0  0  0  0  0  0  0
    2.6506    6.3467    3.2743 H   0  0  0  0  0  0  0  0  0  0  0  0
    0.3031    6.4339    2.4239 H   0  0  0  0  0  0  0  0  0  0  0  0
   -0.6143    4.5778    1.0932 H   0  0  0  0  0  0  0  0  0  0  0  0
    0.3375   -0.6061    2.4055 H   0  0  0  0  0  0  0  0  0  0  0  0
    6.8444   -0.5580   -0.8884 H   0  0  0  0  0  0  0  0  0  0  0  0
    5.2476    1.2505   -0.3721 H   0  0  0  0  0  0  0  0  0  0  0  0
    2.4605   -1.6514    1.1616 H   0  0  0  0  0  0  0  0  0  0  0  0
    4.0540   -3.4455    0.6579 H   0  0  0  0  0  0  0  0  0  0  0  0
    8.2756   -2.0925    0.1216 H   0  0  0  0  0  0  0  0  0  0  0  0
    9.8786   -3.9080   -0.3873 H   0  0  0  0  0  0  0  0  0  0  0  0
    9.0575   -6.1033   -1.2292 H   0  0  0  0  0  0  0  0  0  0  0  0
    6.6155   -6.4536   -1.5756 H   0  0  0  0  0  0  0  0  0  0  0  0
    5.0164   -4.6264   -1.0975 H   0  0  0  0  0  0  0  0  0  0  0  0
   -5.2580   -1.4734    2.1572 H   0  0  0  0  0  0  0  0  0  0  0  0
   -3.6076    0.3161    1.7463 H   0  0  0  0  0  0  0  0  0  0  0  0
   -4.2323   -0.0810   -2.4907 H   0  0  0  0  0  0  0  0  0  0  0  0
   -5.9090   -1.8492   -2.0791 H   0  0  0  0  0  0  0  0  0  0  0  0
   -7.5651   -1.9225    2.0541 H   0  0  0  0  0  0  0  0  0  0  0  0
   -9.2167   -3.7224    2.4604 H   0  0  0  0  0  0  0  0  0  0  0  0
   -9.3217   -5.6909    0.9390 H   0  0  0  0  0  0  0  0  0  0  0  0
   -7.7406   -5.8509   -0.9785 H   0  0  0  0  0  0  0  0  0  0  0  0
   -6.0683   -4.0660   -1.3643 H   0  0  0  0  0  0  0  0  0  0  0  0
  1  2  1  0  0  0  0
  1  7  1  0  0  0  0
  2  3  1  0  0  0  0
  2 24  1  0  0  0  0
  2 49  2  0  0  0  0
  3  4  1  0  0  0  0
  4  5  2  0  0  0  0
  4  8  1  0  0  0  0
  5  6  1  0  0  0  0
  5 15  1  0  0  0  0
  6  7  2  0  0  0  0
  6 23  1  0  0  0  0
  7 16  1  0  0  0  0
  8  9  2  0  0  0  0
  8 40  1  0  0  0  0
  9 10  1  0  0  0  0
  9 50  1  0  0  0  0
 10 11  2  0  0  0  0
 10 15  1  0  0  0  0
 11 12  1  0  0  0  0
 11 51  1  0  0  0  0
 12 13  2  0  0  0  0
 12 52  1  0  0  0  0
 13 14  1  0  0  0  0
 13 53  1  0  0  0  0
 14 15  2  0  0  0  0
 14 54  1  0  0  0  0
 16 17  2  0  0  0  0
 16 28  1  0  0  0  0
 17 18  1  0  0  0  0
 17 55  1  0  0  0  0
 18 19  2  0  0  0  0
 18 23  1  0  0  0  0
 19 20  1  0  0  0  0
 19 56  1  0  0  0  0
 20 21  2  0  0  0  0
 20 57  1  0  0  0  0
 21 22  1  0  0  0  0
 21 58  1  0  0  0  0
 22 23  2  0  0  0  0
 22 59  1  0  0  0  0
 24 60  1  0  0  0  0
 25 26  2  0  0  0  0
 25 30  1  0  0  0  0
 25 31  1  0  0  0  0
 26 27  1  0  0  0  0
 26 61  1  0  0  0  0
 27 28  2  0  0  0  0
 27 62  1  0  0  0  0
 28 29  1  0  0  0  0
 29 30  2  0  0  0  0
 29 63  1  0  0  0  0
 30 64  1  0  0  0  0
 31 32  2  0  0  0  0
 31 36  1  0  0  0  0
 32 33  1  0  0  0  0
 32 65  1  0  0  0  0
 33 34  2  0  0  0  0
 33 66  1  0  0  0  0
 34 35  1  0  0  0  0
 34 67  1  0  0  0  0
 35 36  2  0  0  0  0
 35 68  1  0  0  0  0
 36 69  1  0  0  0  0
 37 38  2  0  0  0  0
 37 42  1  0  0  0  0
 37 43  1  0  0  0  0
 38 39  1  0  0  0  0
 38 70  1  0  0  0  0
 39 40  2  0  0  0  0
 39 71  1  0  0  0  0
 40 41  1  0  0  0  0
 41 42  2  0  0  0  0
 41 72  1  0  0  0  0
 42 73  1  0  0  0  0
 43 44  2  0  0  0  0
 43 48  1  0  0  0  0
 44 45  1  0  0  0  0
 44 74  1  0  0  0  0
 45 46  2  0  0  0  0
 45 75  1  0  0  0  0
 46 47  1  0  0  0  0
 46 76  1  0  0  0  0
 47 48  2  0  0  0  0
 47 77  1  0  0  0  0
 48 78  1  0  0  0  0
M  END
$$$$
