Title Card Required
 OpenBabel03192317503D

 90100  0  0  0  0  0  0  0  0999 V2000
   -0.0637   -0.3716   -0.2234 P   0  0  0  0  0  0  0  0  0  0  0  0
    0.4060    0.5730   -1.2333 O   0  0  0  0  0  0  0  0  0  0  0  0
   -0.8273    0.2110    1.0495 O   0  0  0  0  0  0  0  0  0  0  0  0
    0.9970   -1.3063    0.5590 O   0  0  0  0  0  0  0  0  0  0  0  0
   -1.0482   -1.4994   -0.8484 O   0  0  0  0  0  0  0  0  0  0  0  0
    0.7384   -3.5220   -0.2851 C   0  0  0  0  0  0  0  0  0  0  0  0
    1.5199   -2.3928   -0.1210 C   0  0  0  0  0  0  0  0  0  0  0  0
    2.8337   -2.2633   -0.6551 C   0  0  0  0  0  0  0  0  0  0  0  0
    3.3400   -3.3313   -1.3606 C   0  0  0  0  0  0  0  0  0  0  0  0
    2.5792   -4.5054   -1.5931 C   0  0  0  0  0  0  0  0  0  0  0  0
    3.1053   -5.5752   -2.3681 C   0  0  0  0  0  0  0  0  0  0  0  0
    2.3460   -6.6844   -2.6432 C   0  0  0  0  0  0  0  0  0  0  0  0
    1.0169   -6.7662   -2.1614 C   0  0  0  0  0  0  0  0  0  0  0  0
    0.4849   -5.7546   -1.3986 C   0  0  0  0  0  0  0  0  0  0  0  0
    1.2559   -4.6038   -1.0728 C   0  0  0  0  0  0  0  0  0  0  0  0
   -0.6351   -3.5395    0.2950 C   0  0  0  0  0  0  0  0  0  0  0  0
   -1.4932   -2.5028   -0.0133 C   0  0  0  0  0  0  0  0  0  0  0  0
   -2.8034   -2.3748    0.5325 C   0  0  0  0  0  0  0  0  0  0  0  0
   -3.2399   -3.3728    1.3730 C   0  0  0  0  0  0  0  0  0  0  0  0
   -2.4078   -4.4654    1.7322 C   0  0  0  0  0  0  0  0  0  0  0  0
   -2.8660   -5.4643    2.6341 C   0  0  0  0  0  0  0  0  0  0  0  0
   -2.0381   -6.4821    3.0369 C   0  0  0  0  0  0  0  0  0  0  0  0
   -0.7058   -6.5372    2.5609 C   0  0  0  0  0  0  0  0  0  0  0  0
   -0.2377   -5.5937    1.6779 C   0  0  0  0  0  0  0  0  0  0  0  0
   -1.0799   -4.5432    1.2189 C   0  0  0  0  0  0  0  0  0  0  0  0
   -3.6149   -1.1598    0.2658 C   0  0  0  0  0  0  0  0  0  0  0  0
   -3.7440   -0.6188   -1.0215 C   0  0  0  0  0  0  0  0  0  0  0  0
   -4.4669    0.5504   -1.2300 C   0  0  0  0  0  0  0  0  0  0  0  0
   -5.0843    1.2236   -0.1650 C   0  0  0  0  0  0  0  0  0  0  0  0
   -4.9630    0.6744    1.1191 C   0  0  0  0  0  0  0  0  0  0  0  0
   -4.2409   -0.4966    1.3303 C   0  0  0  0  0  0  0  0  0  0  0  0
   -6.9725    2.7906    0.3124 C   0  0  0  0  0  0  0  0  0  0  0  0
   -5.8272    2.4880   -0.3962 C   0  0  0  0  0  0  0  0  0  0  0  0
   -5.3565    3.4197   -1.3679 C   0  0  0  0  0  0  0  0  0  0  0  0
   -6.0208    4.5962   -1.5993 C   0  0  0  0  0  0  0  0  0  0  0  0
   -7.2024    4.9220   -0.8795 C   0  0  0  0  0  0  0  0  0  0  0  0
   -7.9135    6.1320   -1.0987 C   0  0  0  0  0  0  0  0  0  0  0  0
   -9.0542    6.4131   -0.3870 C   0  0  0  0  0  0  0  0  0  0  0  0
   -9.5373    5.4948    0.5794 C   0  0  0  0  0  0  0  0  0  0  0  0
   -8.8692    4.3178    0.8131 C   0  0  0  0  0  0  0  0  0  0  0  0
   -7.6841    3.9998    0.0936 C   0  0  0  0  0  0  0  0  0  0  0  0
    3.6059   -1.0043   -0.4990 C   0  0  0  0  0  0  0  0  0  0  0  0
    3.7429   -0.3679    0.7420 C   0  0  0  0  0  0  0  0  0  0  0  0
    4.4839    0.8024    0.8588 C   0  0  0  0  0  0  0  0  0  0  0  0
    5.0981    1.3834   -0.2598 C   0  0  0  0  0  0  0  0  0  0  0  0
    4.9544    0.7470   -1.4992 C   0  0  0  0  0  0  0  0  0  0  0  0
    4.2236   -0.4300   -1.6161 C   0  0  0  0  0  0  0  0  0  0  0  0
    6.6929    2.8967    0.9307 C   0  0  0  0  0  0  0  0  0  0  0  0
    5.8642    2.6498   -0.1447 C   0  0  0  0  0  0  0  0  0  0  0  0
    5.7461    3.6416   -1.1623 C   0  0  0  0  0  0  0  0  0  0  0  0
    6.4372    4.8226   -1.0816 C   0  0  0  0  0  0  0  0  0  0  0  0
    7.2984    5.0913    0.0169 C   0  0  0  0  0  0  0  0  0  0  0  0
    8.0306    6.3039    0.1268 C   0  0  0  0  0  0  0  0  0  0  0  0
    8.8585    6.5287    1.1994 C   0  0  0  0  0  0  0  0  0  0  0  0
    8.9928    5.5484    2.2149 C   0  0  0  0  0  0  0  0  0  0  0  0
    8.2948    4.3680    2.1365 C   0  0  0  0  0  0  0  0  0  0  0  0
    7.4273    4.1076    1.0397 C   0  0  0  0  0  0  0  0  0  0  0  0
   -1.3866    0.9678    0.8215 H   0  0  0  0  0  0  0  0  0  0  0  0
    4.3523   -3.2697   -1.7663 H   0  0  0  0  0  0  0  0  0  0  0  0
    4.1244   -5.4888   -2.7503 H   0  0  0  0  0  0  0  0  0  0  0  0
    2.7571   -7.4967   -3.2441 H   0  0  0  0  0  0  0  0  0  0  0  0
    0.4068   -7.6372   -2.4052 H   0  0  0  0  0  0  0  0  0  0  0  0
   -0.5435   -5.8241   -1.0436 H   0  0  0  0  0  0  0  0  0  0  0  0
   -4.2469   -3.3176    1.7927 H   0  0  0  0  0  0  0  0  0  0  0  0
   -3.8892   -5.3971    3.0093 H   0  0  0  0  0  0  0  0  0  0  0  0
   -2.3988   -7.2406    3.7330 H   0  0  0  0  0  0  0  0  0  0  0  0
   -0.0421   -7.3326    2.9026 H   0  0  0  0  0  0  0  0  0  0  0  0
    0.7927   -5.6417    1.3256 H   0  0  0  0  0  0  0  0  0  0  0  0
   -3.2699   -1.1187   -1.8660 H   0  0  0  0  0  0  0  0  0  0  0  0
   -4.5687    0.9405   -2.2441 H   0  0  0  0  0  0  0  0  0  0  0  0
   -5.4071    1.1939    1.9702 H   0  0  0  0  0  0  0  0  0  0  0  0
   -4.1208   -0.8832    2.3443 H   0  0  0  0  0  0  0  0  0  0  0  0
   -7.3666    2.0800    1.0431 H   0  0  0  0  0  0  0  0  0  0  0  0
   -4.4387    3.1988   -1.9154 H   0  0  0  0  0  0  0  0  0  0  0  0
   -5.6414    5.3057   -2.3377 H   0  0  0  0  0  0  0  0  0  0  0  0
   -7.5361    6.8349   -1.8443 H   0  0  0  0  0  0  0  0  0  0  0  0
   -9.5933    7.3450   -0.5633 H   0  0  0  0  0  0  0  0  0  0  0  0
  -10.4445    5.7286    1.1386 H   0  0  0  0  0  0  0  0  0  0  0  0
   -9.2396    3.6083    1.5562 H   0  0  0  0  0  0  0  0  0  0  0  0
    3.2553   -0.7921    1.6204 H   0  0  0  0  0  0  0  0  0  0  0  0
    4.5641    1.2953    1.8296 H   0  0  0  0  0  0  0  0  0  0  0  0
    5.4289    1.1760   -2.3837 H   0  0  0  0  0  0  0  0  0  0  0  0
    4.1071   -0.9017   -2.5937 H   0  0  0  0  0  0  0  0  0  0  0  0
    6.8145    2.1398    1.7095 H   0  0  0  0  0  0  0  0  0  0  0  0
    5.0696    3.4612   -1.9995 H   0  0  0  0  0  0  0  0  0  0  0  0
    6.3255    5.5801   -1.8603 H   0  0  0  0  0  0  0  0  0  0  0  0
    7.9230    7.0546   -0.6590 H   0  0  0  0  0  0  0  0  0  0  0  0
    9.4173    7.4628    1.2734 H   0  0  0  0  0  0  0  0  0  0  0  0
    9.6554    5.7367    3.0611 H   0  0  0  0  0  0  0  0  0  0  0  0
    8.3970    3.6107    2.9167 H   0  0  0  0  0  0  0  0  0  0  0  0
  1  2  2  0  0  0  0
  1  3  1  0  0  0  0
  1  4  1  0  0  0  0
  1  5  1  0  0  0  0
  3 58  1  0  0  0  0
  4  7  1  0  0  0  0
  5 17  1  0  0  0  0
  6  7  2  0  0  0  0
  6 15  1  0  0  0  0
  6 16  1  0  0  0  0
  7  8  1  0  0  0  0
  8  9  2  0  0  0  0
  8 42  1  0  0  0  0
  9 10  1  0  0  0  0
  9 59  1  0  0  0  0
 10 11  2  0  0  0  0
 10 15  1  0  0  0  0
 11 12  1  0  0  0  0
 11 60  1  0  0  0  0
 12 13  2  0  0  0  0
 12 61  1  0  0  0  0
 13 14  1  0  0  0  0
 13 62  1  0  0  0  0
 14 15  2  0  0  0  0
 14 63  1  0  0  0  0
 16 17  2  0  0  0  0
 16 25  1  0  0  0  0
 17 18  1  0  0  0  0
 18 19  2  0  0  0  0
 18 26  1  0  0  0  0
 19 20  1  0  0  0  0
 19 64  1  0  0  0  0
 20 21  2  0  0  0  0
 20 25  1  0  0  0  0
 21 22  1  0  0  0  0
 21 65  1  0  0  0  0
 22 23  2  0  0  0  0
 22 66  1  0  0  0  0
 23 24  1  0  0  0  0
 23 67  1  0  0  0  0
 24 25  2  0  0  0  0
 24 68  1  0  0  0  0
 26 27  2  0  0  0  0
 26 31  1  0  0  0  0
 27 28  1  0  0  0  0
 27 69  1  0  0  0  0
 28 29  2  0  0  0  0
 28 70  1  0  0  0  0
 29 30  1  0  0  0  0
 29 33  1  0  0  0  0
 30 31  2  0  0  0  0
 30 71  1  0  0  0  0
 31 72  1  0  0  0  0
 32 33  2  0  0  0  0
 32 41  1  0  0  0  0
 32 73  1  0  0  0  0
 33 34  1  0  0  0  0
 34 35  2  0  0  0  0
 34 74  1  0  0  0  0
 35 36  1  0  0  0  0
 35 75  1  0  0  0  0
 36 37  2  0  0  0  0
 36 41  1  0  0  0  0
 37 38  1  0  0  0  0
 37 76  1  0  0  0  0
 38 39  2  0  0  0  0
 38 77  1  0  0  0  0
 39 40  1  0  0  0  0
 39 78  1  0  0  0  0
 40 41  2  0  0  0  0
 40 79  1  0  0  0  0
 42 43  2  0  0  0  0
 42 47  1  0  0  0  0
 43 44  1  0  0  0  0
 43 80  1  0  0  0  0
 44 45  2  0  0  0  0
 44 81  1  0  0  0  0
 45 46  1  0  0  0  0
 45 49  1  0  0  0  0
 46 47  2  0  0  0  0
 46 82  1  0  0  0  0
 47 83  1  0  0  0  0
 48 49  2  0  0  0  0
 48 57  1  0  0  0  0
 48 84  1  0  0  0  0
 49 50  1  0  0  0  0
 50 51  2  0  0  0  0
 50 85  1  0  0  0  0
 51 52  1  0  0  0  0
 51 86  1  0  0  0  0
 52 53  2  0  0  0  0
 52 57  1  0  0  0  0
 53 54  1  0  0  0  0
 53 87  1  0  0  0  0
 54 55  2  0  0  0  0
 54 88  1  0  0  0  0
 55 56  1  0  0  0  0
 55 89  1  0  0  0  0
 56 57  2  0  0  0  0
 56 90  1  0  0  0  0
M  END
$$$$
