Title Card Required
 OpenBabel03192317423D

 38 39  0  0  1  0  0  0  0  0999 V2000
    0.5776   -0.9847   -0.5891 C   0  0  2  0  0  0  0  0  0  0  0  0
   -0.4548   -0.9854    0.6044 C   0  0  2  0  0  0  0  0  0  0  0  0
    1.3480   -2.2143   -0.6723 N   0  0  0  0  0  0  0  0  0  0  0  0
   -1.7321   -0.2240    0.2702 C   0  0  0  0  0  0  0  0  0  0  0  0
    1.4612    0.2515   -0.5276 C   0  0  0  0  0  0  0  0  0  0  0  0
    2.8406    0.1565   -0.3289 C   0  0  0  0  0  0  0  0  0  0  0  0
    3.6280    1.3046   -0.2285 C   0  0  0  0  0  0  0  0  0  0  0  0
    3.0480    2.5662   -0.3351 C   0  0  0  0  0  0  0  0  0  0  0  0
    1.6741    2.6722   -0.5548 C   0  0  0  0  0  0  0  0  0  0  0  0
    0.8881    1.5259   -0.6523 C   0  0  0  0  0  0  0  0  0  0  0  0
    0.6296   -3.3216   -1.2642 C   0  0  0  0  0  0  0  0  0  0  0  0
    0.0892   -0.5482    1.8741 N   0  0  0  0  0  0  0  0  0  0  0  0
    1.0967   -1.3901    2.4812 C   0  0  0  0  0  0  0  0  0  0  0  0
   -2.2352    0.7708    1.1131 C   0  0  0  0  0  0  0  0  0  0  0  0
   -3.4002    1.4643    0.7832 C   0  0  0  0  0  0  0  0  0  0  0  0
   -4.0936    1.1622   -0.3861 C   0  0  0  0  0  0  0  0  0  0  0  0
   -3.6173    0.1510   -1.2211 C   0  0  0  0  0  0  0  0  0  0  0  0
   -2.4485   -0.5320   -0.8948 C   0  0  0  0  0  0  0  0  0  0  0  0
    0.0073   -0.9203   -1.5291 H   0  0  0  0  0  0  0  0  0  0  0  0
   -0.7509   -2.0423    0.7354 H   0  0  0  0  0  0  0  0  0  0  0  0
    1.7098   -2.4740    0.2408 H   0  0  0  0  0  0  0  0  0  0  0  0
    3.2995   -0.8312   -0.2804 H   0  0  0  0  0  0  0  0  0  0  0  0
    4.7042    1.2092   -0.0740 H   0  0  0  0  0  0  0  0  0  0  0  0
    3.6635    3.4640   -0.2606 H   0  0  0  0  0  0  0  0  0  0  0  0
    1.2106    3.6547   -0.6594 H   0  0  0  0  0  0  0  0  0  0  0  0
   -0.1848    1.6214   -0.8345 H   0  0  0  0  0  0  0  0  0  0  0  0
    1.2494   -4.2278   -1.2313 H   0  0  0  0  0  0  0  0  0  0  0  0
   -0.3411   -3.5583   -0.7796 H   0  0  0  0  0  0  0  0  0  0  0  0
    0.4232   -3.1029   -2.3233 H   0  0  0  0  0  0  0  0  0  0  0  0
    0.4353    0.4069    1.7887 H   0  0  0  0  0  0  0  0  0  0  0  0
    2.0766   -1.4032    1.9627 H   0  0  0  0  0  0  0  0  0  0  0  0
    1.2836   -1.0569    3.5122 H   0  0  0  0  0  0  0  0  0  0  0  0
    0.7237   -2.4252    2.5361 H   0  0  0  0  0  0  0  0  0  0  0  0
   -1.7137    0.9873    2.0446 H   0  0  0  0  0  0  0  0  0  0  0  0
   -3.7714    2.2421    1.4528 H   0  0  0  0  0  0  0  0  0  0  0  0
   -5.0048    1.7045   -0.6429 H   0  0  0  0  0  0  0  0  0  0  0  0
   -4.1598   -0.1081   -2.1318 H   0  0  0  0  0  0  0  0  0  0  0  0
   -2.0930   -1.3260   -1.5567 H   0  0  0  0  0  0  0  0  0  0  0  0
  1  2  1  0  0  0  0
  1  3  1  0  0  0  0
  1  5  1  0  0  0  0
  1 19  1  6  0  0  0
  2  4  1  0  0  0  0
  2 12  1  0  0  0  0
  2 20  1  1  0  0  0
  3 11  1  0  0  0  0
  3 21  1  0  0  0  0
  4 14  2  0  0  0  0
  4 18  1  0  0  0  0
  5  6  2  0  0  0  0
  5 10  1  0  0  0  0
  6  7  1  0  0  0  0
  6 22  1  0  0  0  0
  7  8  2  0  0  0  0
  7 23  1  0  0  0  0
  8  9  1  0  0  0  0
  8 24  1  0  0  0  0
  9 10  2  0  0  0  0
  9 25  1  0  0  0  0
 10 26  1  0  0  0  0
 11 27  1  0  0  0  0
 11 28  1  0  0  0  0
 11 29  1  0  0  0  0
 12 13  1  0  0  0  0
 12 30  1  0  0  0  0
 13 31  1  0  0  0  0
 13 32  1  0  0  0  0
 13 33  1  0  0  0  0
 14 15  1  0  0  0  0
 14 34  1  0  0  0  0
 15 16  2  0  0  0  0
 15 35  1  0  0  0  0
 16 17  1  0  0  0  0
 16 36  1  0  0  0  0
 17 18  2  0  0  0  0
 17 37  1  0  0  0  0
 18 38  1  0  0  0  0
M  END
$$$$
