Title Card Required
 OpenBabel03192317453D

 61 66  0  0  1  0  0  0  0  0999 V2000
    1.2560   -2.1936   -1.5872 C   0  0  2  0  0  0  0  0  0  0  0  0
    0.4657   -3.2801   -0.8813 C   0  0  0  0  0  0  0  0  0  0  0  0
   -0.8324   -2.9797   -1.0122 C   0  0  0  0  0  0  0  0  0  0  0  0
   -0.9218   -1.6915   -1.8176 C   0  0  1  0  0  0  0  0  0  0  0  0
   -0.3816   -0.5039   -0.9511 C   0  0  2  0  0  0  0  0  0  0  0  0
    1.0970   -0.9201   -0.6850 C   0  0  2  0  0  0  0  0  0  0  0  0
    0.2972   -1.8675   -2.7463 C   0  0  0  0  0  0  0  0  0  0  0  0
    2.2756    0.4495   -1.1684 P   0  0  0  0  0  0  0  0  0  0  0  0
    1.6438    1.7553   -0.0224 C   0  0  0  0  0  0  0  0  0  0  0  0
    1.9331    1.7825    1.3478 C   0  0  0  0  0  0  0  0  0  0  0  0
    1.3047    2.7041    2.1810 C   0  0  0  0  0  0  0  0  0  0  0  0
    0.3724    3.6032    1.6595 C   0  0  0  0  0  0  0  0  0  0  0  0
    0.0906    3.5969    0.2951 C   0  0  0  0  0  0  0  0  0  0  0  0
    0.7367    2.6877   -0.5424 C   0  0  0  0  0  0  0  0  0  0  0  0
    3.8199   -0.0535   -0.2955 C   0  0  0  0  0  0  0  0  0  0  0  0
    4.8851    0.8604   -0.3026 C   0  0  0  0  0  0  0  0  0  0  0  0
    6.0946    0.5546    0.3135 C   0  0  0  0  0  0  0  0  0  0  0  0
    6.2708   -0.6839    0.9338 C   0  0  0  0  0  0  0  0  0  0  0  0
    5.2280   -1.6058    0.9343 C   0  0  0  0  0  0  0  0  0  0  0  0
    4.0096   -1.2927    0.3275 C   0  0  0  0  0  0  0  0  0  0  0  0
   -1.2741    0.1040    0.5869 P   0  0  0  0  0  0  0  0  0  0  0  0
   -2.4927    1.2964   -0.1240 C   0  0  0  0  0  0  0  0  0  0  0  0
   -2.7650    1.4763   -1.4855 C   0  0  0  0  0  0  0  0  0  0  0  0
   -3.6738    2.4483   -1.9091 C   0  0  0  0  0  0  0  0  0  0  0  0
   -4.3320    3.2482   -0.9777 C   0  0  0  0  0  0  0  0  0  0  0  0
   -4.0763    3.0731    0.3831 C   0  0  0  0  0  0  0  0  0  0  0  0
   -3.1597    2.1122    0.8019 C   0  0  0  0  0  0  0  0  0  0  0  0
   -2.3896   -1.3158    0.9821 C   0  0  0  0  0  0  0  0  0  0  0  0
   -1.9662   -2.1893    1.9912 C   0  0  0  0  0  0  0  0  0  0  0  0
   -2.7001   -3.3349    2.2961 C   0  0  0  0  0  0  0  0  0  0  0  0
   -3.8792   -3.6092    1.6041 C   0  0  0  0  0  0  0  0  0  0  0  0
   -4.3271   -2.7278    0.6182 C   0  0  0  0  0  0  0  0  0  0  0  0
   -3.5891   -1.5856    0.3112 C   0  0  0  0  0  0  0  0  0  0  0  0
    2.2935   -2.4358   -1.8531 H   0  0  0  0  0  0  0  0  0  0  0  0
   -1.8924   -1.4903   -2.2889 H   0  0  0  0  0  0  0  0  0  0  0  0
    0.8977   -4.0878   -0.2891 H   0  0  0  0  0  0  0  0  0  0  0  0
   -1.6776   -3.5014   -0.5626 H   0  0  0  0  0  0  0  0  0  0  0  0
   -0.3733    0.3848   -1.6021 H   0  0  0  0  0  0  0  0  0  0  0  0
    1.2524   -1.1642    0.3780 H   0  0  0  0  0  0  0  0  0  0  0  0
    0.5710   -0.9528   -3.2936 H   0  0  0  0  0  0  0  0  0  0  0  0
    0.1856   -2.7089   -3.4430 H   0  0  0  0  0  0  0  0  0  0  0  0
    2.6452    1.0671    1.7664 H   0  0  0  0  0  0  0  0  0  0  0  0
    1.5314    2.7117    3.2485 H   0  0  0  0  0  0  0  0  0  0  0  0
   -0.1306    4.3130    2.3184 H   0  0  0  0  0  0  0  0  0  0  0  0
   -0.6391    4.2947   -0.1205 H   0  0  0  0  0  0  0  0  0  0  0  0
    0.5209    2.6916   -1.6145 H   0  0  0  0  0  0  0  0  0  0  0  0
    4.7575    1.8304   -0.7913 H   0  0  0  0  0  0  0  0  0  0  0  0
    6.9070    1.2831    0.3055 H   0  0  0  0  0  0  0  0  0  0  0  0
    7.2202   -0.9279    1.4128 H   0  0  0  0  0  0  0  0  0  0  0  0
    5.3569   -2.5777    1.4141 H   0  0  0  0  0  0  0  0  0  0  0  0
    3.2058   -2.0303    0.3500 H   0  0  0  0  0  0  0  0  0  0  0  0
   -2.2719    0.8556   -2.2361 H   0  0  0  0  0  0  0  0  0  0  0  0
   -3.8695    2.5761   -2.9752 H   0  0  0  0  0  0  0  0  0  0  0  0
   -5.0413    4.0072   -1.3113 H   0  0  0  0  0  0  0  0  0  0  0  0
   -4.5851    3.6960    1.1207 H   0  0  0  0  0  0  0  0  0  0  0  0
   -2.9436    1.9965    1.8675 H   0  0  0  0  0  0  0  0  0  0  0  0
   -1.0429   -1.9711    2.5338 H   0  0  0  0  0  0  0  0  0  0  0  0
   -2.3531   -4.0126    3.0780 H   0  0  0  0  0  0  0  0  0  0  0  0
   -4.4576   -4.5037    1.8414 H   0  0  0  0  0  0  0  0  0  0  0  0
   -5.2575   -2.9322    0.0857 H   0  0  0  0  0  0  0  0  0  0  0  0
   -3.9448   -0.8996   -0.4614 H   0  0  0  0  0  0  0  0  0  0  0  0
  1  2  1  0  0  0  0
  1  6  1  0  0  0  0
  1  7  1  0  0  0  0
  1 34  1  6  0  0  0
  2  3  2  0  0  0  0
  2 36  1  0  0  0  0
  3  4  1  0  0  0  0
  3 37  1  0  0  0  0
  4  5  1  0  0  0  0
  4  7  1  0  0  0  0
  4 35  1  6  0  0  0
  5  6  1  0  0  0  0
  5 21  1  0  0  0  0
  5 38  1  6  0  0  0
  6  8  1  0  0  0  0
  6 39  1  1  0  0  0
  7 40  1  0  0  0  0
  7 41  1  0  0  0  0
  8  9  1  0  0  0  0
  8 15  1  0  0  0  0
  9 10  2  0  0  0  0
  9 14  1  0  0  0  0
 10 11  1  0  0  0  0
 10 42  1  0  0  0  0
 11 12  2  0  0  0  0
 11 43  1  0  0  0  0
 12 13  1  0  0  0  0
 12 44  1  0  0  0  0
 13 14  2  0  0  0  0
 13 45  1  0  0  0  0
 14 46  1  0  0  0  0
 15 16  2  0  0  0  0
 15 20  1  0  0  0  0
 16 17  1  0  0  0  0
 16 47  1  0  0  0  0
 17 18  2  0  0  0  0
 17 48  1  0  0  0  0
 18 19  1  0  0  0  0
 18 49  1  0  0  0  0
 19 20  2  0  0  0  0
 19 50  1  0  0  0  0
 20 51  1  0  0  0  0
 21 22  1  0  0  0  0
 21 28  1  0  0  0  0
 22 23  2  0  0  0  0
 22 27  1  0  0  0  0
 23 24  1  0  0  0  0
 23 52  1  0  0  0  0
 24 25  2  0  0  0  0
 24 53  1  0  0  0  0
 25 26  1  0  0  0  0
 25 54  1  0  0  0  0
 26 27  2  0  0  0  0
 26 55  1  0  0  0  0
 27 56  1  0  0  0  0
 28 29  2  0  0  0  0
 28 33  1  0  0  0  0
 29 30  1  0  0  0  0
 29 57  1  0  0  0  0
 30 31  2  0  0  0  0
 30 58  1  0  0  0  0
 31 32  1  0  0  0  0
 31 59  1  0  0  0  0
 32 33  2  0  0  0  0
 32 60  1  0  0  0  0
 33 61  1  0  0  0  0
M  END
$$$$
