Title Card Required
 OpenBabel03192317543D

 34 41  0  0  1  0  0  0  0  0999 V2000
    2.5619    0.8589   -1.5471 S   0  0  0  0  0  1  0  0  0  0  0  0
    1.7050   -0.2026   -0.6198 C   0  0  1  0  0  0  0  0  0  0  0  0
    1.8658   -0.1649    0.7441 N   0  0  2  0  0  4  0  0  0  0  0  0
    3.0115    0.1261    1.5854 C   0  0  0  0  0  0  0  0  0  0  0  0
    4.4339    0.3597    0.7891 C   0  0  0  0  0  0  0  0  0  0  0  0
    0.8317   -0.9696   -1.0933 N   0  0  0  0  0  2  0  0  0  0  0  0
    0.1367   -1.5825    0.0395 C   0  0  1  0  0  0  0  0  0  0  0  0
    0.9456   -1.1575    1.2828 C   0  0  0  0  0  0  0  0  0  0  0  0
   -1.2932   -1.0849    0.0403 C   0  0  0  0  0  0  0  0  0  0  0  0
   -2.3223   -1.8646   -0.4840 C   0  0  0  0  0  0  0  0  0  0  0  0
   -3.6358   -1.4006   -0.5059 C   0  0  0  0  0  0  0  0  0  0  0  0
   -3.9126   -0.1340   -0.0019 C   0  0  0  0  0  0  0  0  0  0  0  0
   -2.8974    0.6737    0.5073 C   0  0  0  0  0  0  0  0  0  0  0  0
   -1.5923    0.1919    0.5209 C   0  0  0  0  0  0  0  0  0  0  0  0
   -5.6984    0.4987   -0.0117 Br  0  0  0  0  0  0  0  0  0  0  0  0
    3.1409   -0.7745    2.1922 H   0  0  0  0  0  0  0  0  0  0  0  0
    2.7354    0.9680    2.2239 H   0  0  0  0  0  0  0  0  0  0  0  0
    4.4744    1.3886    1.1726 H   0  0  0  0  0  0  0  0  0  0  0  0
    5.1689   -0.3766    1.1549 H   0  0  0  0  0  0  0  0  0  0  0  0
    0.1282   -2.6766   -0.0713 H   0  0  0  0  0  0  0  0  0  0  0  0
    1.4951   -2.0067    1.7150 H   0  0  0  0  0  0  0  0  0  0  0  0
    0.2910   -0.7214    2.0559 H   0  0  0  0  0  0  0  0  0  0  0  0
   -2.0969   -2.8558   -0.8852 H   0  0  0  0  0  0  0  0  0  0  0  0
   -4.4415   -2.0152   -0.9107 H   0  0  0  0  0  0  0  0  0  0  0  0
   -3.1303    1.6704    0.8858 H   0  0  0  0  0  0  0  0  0  0  0  0
   -0.7863    0.8328    0.8939 H   0  0  0  0  0  0  0  0  0  0  0  0
    2.7448    2.0518   -0.0517 C   0  0  0  0  0  0  0  0  0  0  0  0
    4.1590   -1.1813   -0.0079 C   0  0  1  0  0  0  0  0  0  0  0  0
    1.8734    2.3040    0.6723 O   0  0  0  0  0  1  0  0  0  0  0  0
    3.6280    2.9834   -0.3289 O   0  0  0  0  0  0  0  0  0  0  0  0
    3.4310   -2.0606    0.3260 O   0  0  0  0  0  1  0  0  0  0  0  0
    5.3412   -1.4358   -0.6025 O   0  0  0  0  0  0  0  0  0  0  0  0
    4.1623    2.5679   -1.0262 H   0  0  0  0  0  0  0  0  0  0  0  0
    5.3438   -2.3567   -0.8926 H   0  0  0  0  0  0  0  0  0  0  0  0
  1 33  1  0  0  0  0
  2  3  1  0  0  0  0
  2  6  1  6  0  0  0
  2 27  1  0  0  0  0
  2 28  1  0  0  0  0
  3  4  1  0  0  0  0
  3  8  1  1  0  0  0
  3 27  1  0  0  0  0
  4  5  1  0  0  0  0
  4 16  1  0  0  0  0
  4 17  1  0  0  0  0
  4 27  1  0  0  0  0
  5 18  1  0  0  0  0
  5 19  1  0  0  0  0
  5 27  1  0  0  0  0
  5 28  1  0  0  0  0
  6  7  1  0  0  0  0
  7  8  1  0  0  0  0
  7  9  1  0  0  0  0
  7 20  1  6  0  0  0
  8 21  1  0  0  0  0
  8 22  1  0  0  0  0
  9 10  2  0  0  0  0
  9 14  1  0  0  0  0
 10 11  1  0  0  0  0
 10 23  1  0  0  0  0
 11 12  2  0  0  0  0
 11 24  1  0  0  0  0
 12 13  1  0  0  0  0
 12 15  1  0  0  0  0
 13 14  2  0  0  0  0
 13 25  1  0  0  0  0
 14 26  1  0  0  0  0
 18 30  1  0  0  0  0
 19 32  1  0  0  0  0
 27 29  1  0  0  0  0
 27 30  1  0  0  0  0
 28 31  1  1  0  0  0
 28 32  1  0  0  0  0
 30 33  1  0  0  0  0
 32 34  1  0  0  0  0
M  END
$$$$
