Title Card Required
 OpenBabel03192317473D

 19 18  0  0  1  0  0  0  0  0999 V2000
   -2.5157    0.7632   -0.2072 C   0  0  0  0  0  0  0  0  0  0  0  0
   -1.2221   -0.0300   -0.2759 C   0  0  1  0  0  0  0  0  0  0  0  0
    0.0118    0.8102    0.0528 C   0  0  0  0  0  0  0  0  0  0  0  0
    1.2562   -0.0624    0.2729 C   0  0  2  0  0  0  0  0  0  0  0  0
    2.5385    0.7375    0.1501 C   0  0  0  0  0  0  0  0  0  0  0  0
   -1.2851   -1.1885    0.5447 O   0  0  0  0  0  0  0  0  0  0  0  0
    1.3124   -1.1137   -0.6632 O   0  0  0  0  0  0  0  0  0  0  0  0
   -2.6738    1.1521    0.8120 H   0  0  0  0  0  0  0  0  0  0  0  0
   -3.3701    0.1262   -0.4723 H   0  0  0  0  0  0  0  0  0  0  0  0
   -2.4885    1.6222   -0.8924 H   0  0  0  0  0  0  0  0  0  0  0  0
   -1.0926   -0.4278   -1.2935 H   0  0  0  0  0  0  0  0  0  0  0  0
    0.1875    1.5146   -0.7772 H   0  0  0  0  0  0  0  0  0  0  0  0
   -0.1722    1.4189    0.9566 H   0  0  0  0  0  0  0  0  0  0  0  0
    1.1988   -0.4816    1.2960 H   0  0  0  0  0  0  0  0  0  0  0  0
    2.5385    1.5921    0.8415 H   0  0  0  0  0  0  0  0  0  0  0  0
    3.4070    0.1018    0.3672 H   0  0  0  0  0  0  0  0  0  0  0  0
    2.6369    1.1159   -0.8780 H   0  0  0  0  0  0  0  0  0  0  0  0
   -1.4022   -0.9053    1.4598 H   0  0  0  0  0  0  0  0  0  0  0  0
    0.5996   -1.7228   -0.4284 H   0  0  0  0  0  0  0  0  0  0  0  0
  1  2  1  0  0  0  0
  1  8  1  0  0  0  0
  1  9  1  0  0  0  0
  1 10  1  0  0  0  0
  2  3  1  0  0  0  0
  2  6  1  0  0  0  0
  2 11  1  6  0  0  0
  3  4  1  0  0  0  0
  3 12  1  0  0  0  0
  3 13  1  0  0  0  0
  4  5  1  0  0  0  0
  4  7  1  0  0  0  0
  4 14  1  1  0  0  0
  5 15  1  0  0  0  0
  5 16  1  0  0  0  0
  5 17  1  0  0  0  0
  6 18  1  0  0  0  0
  7 19  1  0  0  0  0
M  END
$$$$
