Title Card Required
 OpenBabel03192317503D

 17 17  0  0  1  0  0  0  0  0999 V2000
   -2.1475   -0.5319    0.0430 N   0  0  0  0  0  0  0  0  0  0  0  0
   -0.9124   -1.0672    0.6100 C   0  0  0  0  0  0  0  0  0  0  0  0
    0.1126    0.1004    0.7118 C   0  0  2  0  0  0  0  0  0  0  0  0
   -0.6219    1.2911    0.0367 C   0  0  0  0  0  0  0  0  0  0  0  0
   -1.7124    0.5856   -0.7829 C   0  0  0  0  0  0  0  0  0  0  0  0
    1.3823   -0.1846   -0.0548 C   0  0  0  0  0  0  0  0  0  0  0  0
    1.4840   -0.9288   -0.9918 O   0  0  0  0  0  0  0  0  0  0  0  0
    2.4143    0.5462    0.3941 O   0  0  0  0  0  0  0  0  0  0  0  0
   -2.7335   -0.1711    0.7939 H   0  0  0  0  0  0  0  0  0  0  0  0
   -0.5029   -1.8288   -0.0694 H   0  0  0  0  0  0  0  0  0  0  0  0
   -1.1019   -1.5439    1.5804 H   0  0  0  0  0  0  0  0  0  0  0  0
    0.3900    0.3476    1.7443 H   0  0  0  0  0  0  0  0  0  0  0  0
   -1.0830    1.9239    0.8096 H   0  0  0  0  0  0  0  0  0  0  0  0
    0.0491    1.9284   -0.5569 H   0  0  0  0  0  0  0  0  0  0  0  0
   -2.5542    1.2379   -1.0517 H   0  0  0  0  0  0  0  0  0  0  0  0
   -1.2787    0.1896   -1.7160 H   0  0  0  0  0  0  0  0  0  0  0  0
    3.1719    0.3486   -0.1784 H   0  0  0  0  0  0  0  0  0  0  0  0
  1  2  1  0  0  0  0
  1  5  1  0  0  0  0
  1  9  1  0  0  0  0
  2  3  1  0  0  0  0
  2 10  1  0  0  0  0
  2 11  1  0  0  0  0
  3  4  1  0  0  0  0
  3  6  1  0  0  0  0
  3 12  1  1  0  0  0
  4  5  1  0  0  0  0
  4 13  1  0  0  0  0
  4 14  1  0  0  0  0
  5 15  1  0  0  0  0
  5 16  1  0  0  0  0
  6  7  2  0  0  0  0
  6  8  1  0  0  0  0
  8 17  1  0  0  0  0
M  END
$$$$
