Title Card Required
 OpenBabel03192317433D

 17 17  0  0  1  0  0  0  0  0999 V2000
    1.6829   -0.8722   -0.2314 N   0  0  0  0  0  0  0  0  0  0  0  0
    0.8952   -0.7894    0.9858 C   0  0  0  0  0  0  0  0  0  0  0  0
   -0.1208    0.3460    0.7478 C   0  0  1  0  0  0  0  0  0  0  0  0
    0.6741    1.3414   -0.1437 C   0  0  0  0  0  0  0  0  0  0  0  0
    1.9095    0.5158   -0.6109 C   0  0  0  0  0  0  0  0  0  0  0  0
   -1.3072   -0.1692   -0.0293 C   0  0  0  0  0  0  0  0  0  0  0  0
   -1.3114   -1.1542   -0.7206 O   0  0  0  0  0  0  0  0  0  0  0  0
   -2.3802    0.6234    0.0901 O   0  0  0  0  0  0  0  0  0  0  0  0
    1.1042   -1.3266   -0.9364 H   0  0  0  0  0  0  0  0  0  0  0  0
    1.5490   -0.5175    1.8307 H   0  0  0  0  0  0  0  0  0  0  0  0
    0.4167   -1.7503    1.2139 H   0  0  0  0  0  0  0  0  0  0  0  0
   -0.4880    0.8229    1.6657 H   0  0  0  0  0  0  0  0  0  0  0  0
    0.0666    1.6984   -0.9877 H   0  0  0  0  0  0  0  0  0  0  0  0
    0.9697    2.2271    0.4340 H   0  0  0  0  0  0  0  0  0  0  0  0
    2.0957    0.5990   -1.6896 H   0  0  0  0  0  0  0  0  0  0  0  0
    2.8103    0.8860   -0.0962 H   0  0  0  0  0  0  0  0  0  0  0  0
   -3.0778    0.2457   -0.4682 H   0  0  0  0  0  0  0  0  0  0  0  0
  1  2  1  0  0  0  0
  1  5  1  0  0  0  0
  1  9  1  0  0  0  0
  2  3  1  0  0  0  0
  2 10  1  0  0  0  0
  2 11  1  0  0  0  0
  3  4  1  0  0  0  0
  3  6  1  0  0  0  0
  3 12  1  1  0  0  0
  4  5  1  0  0  0  0
  4 13  1  0  0  0  0
  4 14  1  0  0  0  0
  5 15  1  0  0  0  0
  5 16  1  0  0  0  0
  6  7  2  0  0  0  0
  6  8  1  0  0  0  0
  8 17  1  0  0  0  0
M  END
$$$$
