Title Card Required
 OpenBabel03192317573D

 21 21  0  0  1  0  0  0  0  0999 V2000
   -0.1807    1.1511    0.2435 C   0  0  2  0  0  0  0  0  0  0  0  0
    1.0713    0.4237   -0.2752 C   0  0  2  0  0  0  0  0  0  0  0  0
    0.6672   -0.8258   -1.0614 C   0  0  0  0  0  0  0  0  0  0  0  0
   -0.2108   -1.7593   -0.2275 C   0  0  0  0  0  0  0  0  0  0  0  0
   -1.4514   -1.0231    0.2802 C   0  0  0  0  0  0  0  0  0  0  0  0
   -1.0616    0.2252    1.0720 C   0  0  0  0  0  0  0  0  0  0  0  0
   -0.9561    1.6276   -0.8348 O   0  0  0  0  0  0  0  0  0  0  0  0
    1.9097    0.0565    0.8543 N   0  0  0  0  0  0  0  0  0  0  0  0
    0.1500    1.9971    0.8811 H   0  0  0  0  0  0  0  0  0  0  0  0
    1.5794    1.1226   -0.9783 H   0  0  0  0  0  0  0  0  0  0  0  0
    0.1129   -0.5012   -1.9560 H   0  0  0  0  0  0  0  0  0  0  0  0
    1.5730   -1.3466   -1.4139 H   0  0  0  0  0  0  0  0  0  0  0  0
   -0.5010   -2.6359   -0.8265 H   0  0  0  0  0  0  0  0  0  0  0  0
    0.3725   -2.1263    0.6315 H   0  0  0  0  0  0  0  0  0  0  0  0
   -2.0732   -0.7178   -0.5765 H   0  0  0  0  0  0  0  0  0  0  0  0
   -2.0650   -1.6884    0.9058 H   0  0  0  0  0  0  0  0  0  0  0  0
   -0.4978   -0.0607    1.9724 H   0  0  0  0  0  0  0  0  0  0  0  0
   -1.9546    0.7850    1.3877 H   0  0  0  0  0  0  0  0  0  0  0  0
   -0.3905    2.1593   -1.4056 H   0  0  0  0  0  0  0  0  0  0  0  0
    2.2314    0.8856    1.3506 H   0  0  0  0  0  0  0  0  0  0  0  0
    2.7397   -0.4402    0.5373 H   0  0  0  0  0  0  0  0  0  0  0  0
  1  2  1  0  0  0  0
  1  6  1  0  0  0  0
  1  7  1  0  0  0  0
  1  9  1  1  0  0  0
  2  3  1  0  0  0  0
  2  8  1  0  0  0  0
  2 10  1  6  0  0  0
  3  4  1  0  0  0  0
  3 11  1  0  0  0  0
  3 12  1  0  0  0  0
  4  5  1  0  0  0  0
  4 13  1  0  0  0  0
  4 14  1  0  0  0  0
  5  6  1  0  0  0  0
  5 15  1  0  0  0  0
  5 16  1  0  0  0  0
  6 17  1  0  0  0  0
  6 18  1  0  0  0  0
  7 19  1  0  0  0  0
  8 20  1  0  0  0  0
  8 21  1  0  0  0  0
M  END
$$$$
