Title Card Required
 OpenBabel03192317503D

 22 23  0  0  1  0  0  0  0  0999 V2000
   -1.8455    1.8499    0.0066 N   0  0  0  0  0  0  0  0  0  0  0  0
   -2.0827   -0.6976   -1.2164 O   0  0  0  0  0  0  0  0  0  0  0  0
    0.2081    0.4892    0.2984 C   0  0  0  0  0  0  0  0  0  0  0  0
    1.1692    1.4615    0.0520 C   0  0  0  0  0  0  0  0  0  0  0  0
    2.4783    1.0529   -0.2162 C   0  0  0  0  0  0  0  0  0  0  0  0
    2.8065   -0.3047   -0.2406 C   0  0  0  0  0  0  0  0  0  0  0  0
    1.8324   -1.2791   -0.0029 C   0  0  0  0  0  0  0  0  0  0  0  0
    0.5283   -0.8731    0.2646 C   0  0  0  0  0  0  0  0  0  0  0  0
   -0.7173   -1.6922    0.5358 C   0  0  0  0  0  0  0  0  0  0  0  0
   -1.8351   -0.7014    0.1708 C   0  0  1  0  0  0  0  0  0  0  0  0
   -1.2632    0.6758    0.6130 C   0  0  2  0  0  0  0  0  0  0  0  0
   -2.7584    2.0415    0.4138 H   0  0  0  0  0  0  0  0  0  0  0  0
   -2.0114    1.6518   -0.9805 H   0  0  0  0  0  0  0  0  0  0  0  0
   -1.2272   -0.6478   -1.6645 H   0  0  0  0  0  0  0  0  0  0  0  0
    0.8848    2.5154    0.0617 H   0  0  0  0  0  0  0  0  0  0  0  0
    3.2506    1.7981   -0.4143 H   0  0  0  0  0  0  0  0  0  0  0  0
    3.8319   -0.6078   -0.4589 H   0  0  0  0  0  0  0  0  0  0  0  0
    2.0911   -2.3396   -0.0375 H   0  0  0  0  0  0  0  0  0  0  0  0
   -0.7849   -2.6193   -0.0515 H   0  0  0  0  0  0  0  0  0  0  0  0
   -0.7757   -1.9631    1.6035 H   0  0  0  0  0  0  0  0  0  0  0  0
   -2.7952   -0.9307    0.6544 H   0  0  0  0  0  0  0  0  0  0  0  0
   -1.3683    0.7597    1.7099 H   0  0  0  0  0  0  0  0  0  0  0  0
  1 11  1  0  0  0  0
  1 12  1  0  0  0  0
  1 13  1  0  0  0  0
  2 10  1  0  0  0  0
  2 14  1  0  0  0  0
  3  4  2  0  0  0  0
  3  8  1  0  0  0  0
  3 11  1  0  0  0  0
  4  5  1  0  0  0  0
  4 15  1  0  0  0  0
  5  6  2  0  0  0  0
  5 16  1  0  0  0  0
  6  7  1  0  0  0  0
  6 17  1  0  0  0  0
  7  8  2  0  0  0  0
  7 18  1  0  0  0  0
  8  9  1  0  0  0  0
  9 10  1  0  0  0  0
  9 19  1  0  0  0  0
  9 20  1  0  0  0  0
 10 11  1  0  0  0  0
 10 21  1  1  0  0  0
 11 22  1  1  0  0  0
M  END
$$$$
