Title Card Required
 OpenBabel03192317503D

 64 69  0  0  0  0  0  0  0  0999 V2000
   -1.8193    1.9073    2.2772 C   0  0  0  0  0  0  0  0  0  0  0  0
   -0.6362    1.8145    1.4894 C   0  0  0  0  0  0  0  0  0  0  0  0
   -0.6257    0.9744    0.3336 C   0  0  0  0  0  0  0  0  0  0  0  0
   -1.7621    0.2623   -0.0039 C   0  0  0  0  0  0  0  0  0  0  0  0
   -2.9510    0.3329    0.7926 C   0  0  0  0  0  0  0  0  0  0  0  0
   -2.9574    1.1516    1.8987 C   0  0  0  0  0  0  0  0  0  0  0  0
   -1.8331    2.7448    3.4257 C   0  0  0  0  0  0  0  0  0  0  0  0
   -0.7237    3.4714    3.7791 C   0  0  0  0  0  0  0  0  0  0  0  0
    0.4506    3.3902    2.9904 C   0  0  0  0  0  0  0  0  0  0  0  0
    0.4954    2.5846    1.8784 C   0  0  0  0  0  0  0  0  0  0  0  0
    0.5876    0.8551   -0.5222 C   0  0  0  0  0  0  0  0  0  0  0  0
    0.6410    1.4500   -1.8199 C   0  0  0  0  0  0  0  0  0  0  0  0
    1.8282    1.3298   -2.5983 C   0  0  0  0  0  0  0  0  0  0  0  0
    2.9266    0.6073   -2.0681 C   0  0  0  0  0  0  0  0  0  0  0  0
    2.8766    0.0197   -0.8249 C   0  0  0  0  0  0  0  0  0  0  0  0
    1.6852    0.1642   -0.0421 C   0  0  0  0  0  0  0  0  0  0  0  0
   -0.4515    2.1808   -2.3645 C   0  0  0  0  0  0  0  0  0  0  0  0
   -0.3668    2.7500   -3.6121 C   0  0  0  0  0  0  0  0  0  0  0  0
    0.8121    2.6218   -4.3875 C   0  0  0  0  0  0  0  0  0  0  0  0
    1.8846    1.9266   -3.8870 C   0  0  0  0  0  0  0  0  0  0  0  0
   -1.7247   -0.4977   -1.1224 O   0  0  0  0  0  0  0  0  0  0  0  0
    1.6097   -0.3613    1.2022 O   0  0  0  0  0  0  0  0  0  0  0  0
   -4.1522   -0.4637    0.4273 C   0  0  0  0  0  0  0  0  0  0  0  0
    4.0332   -0.7488   -0.2928 C   0  0  0  0  0  0  0  0  0  0  0  0
   -4.0678   -1.8379    0.1753 C   0  0  0  0  0  0  0  0  0  0  0  0
   -5.1987   -2.5971   -0.1328 C   0  0  0  0  0  0  0  0  0  0  0  0
   -6.4520   -1.9800   -0.1886 C   0  0  0  0  0  0  0  0  0  0  0  0
   -5.4216    0.1374    0.3631 C   0  0  0  0  0  0  0  0  0  0  0  0
    5.3192   -0.2029   -0.2920 C   0  0  0  0  0  0  0  0  0  0  0  0
    6.4201   -0.9214    0.1757 C   0  0  0  0  0  0  0  0  0  0  0  0
    6.2434   -2.2204    0.6639 C   0  0  0  0  0  0  0  0  0  0  0  0
    4.9592   -2.7834    0.6709 C   0  0  0  0  0  0  0  0  0  0  0  0
    3.8757   -2.0592    0.1983 C   0  0  0  0  0  0  0  0  0  0  0  0
   -6.5529   -0.6036    0.0637 C   0  0  0  0  0  0  0  0  0  0  0  0
    7.2393   -2.9945    1.1431 O   0  0  0  0  0  0  0  0  0  0  0  0
   -7.6037   -2.6209   -0.4766 O   0  0  0  0  0  0  0  0  0  0  0  0
    8.5417   -2.4720    1.1608 C   0  0  0  0  0  0  0  0  0  0  0  0
   -7.5572   -4.0026   -0.7176 C   0  0  0  0  0  0  0  0  0  0  0  0
   -3.8558    1.2009    2.5191 H   0  0  0  0  0  0  0  0  0  0  0  0
   -2.7469    2.7976    4.0218 H   0  0  0  0  0  0  0  0  0  0  0  0
   -0.7424    4.1121    4.6618 H   0  0  0  0  0  0  0  0  0  0  0  0
    1.3283    3.9756    3.2698 H   0  0  0  0  0  0  0  0  0  0  0  0
    1.4015    2.5316    1.2734 H   0  0  0  0  0  0  0  0  0  0  0  0
    3.8280    0.4934   -2.6754 H   0  0  0  0  0  0  0  0  0  0  0  0
   -1.3608    2.2858   -1.7710 H   0  0  0  0  0  0  0  0  0  0  0  0
   -1.2156    3.3079   -4.0109 H   0  0  0  0  0  0  0  0  0  0  0  0
    0.8649    3.0769   -5.3775 H   0  0  0  0  0  0  0  0  0  0  0  0
    2.8017    1.8213   -4.4710 H   0  0  0  0  0  0  0  0  0  0  0  0
   -2.6167   -0.7988   -1.3385 H   0  0  0  0  0  0  0  0  0  0  0  0
    2.4839   -0.6612    1.4825 H   0  0  0  0  0  0  0  0  0  0  0  0
   -3.0975   -2.3362    0.2412 H   0  0  0  0  0  0  0  0  0  0  0  0
   -5.0879   -3.6652   -0.3132 H   0  0  0  0  0  0  0  0  0  0  0  0
   -5.5101    1.2105    0.5441 H   0  0  0  0  0  0  0  0  0  0  0  0
    5.4620    0.8156   -0.6589 H   0  0  0  0  0  0  0  0  0  0  0  0
    7.4044   -0.4558    0.1610 H   0  0  0  0  0  0  0  0  0  0  0  0
    4.8454   -3.8008    1.0459 H   0  0  0  0  0  0  0  0  0  0  0  0
    2.8845   -2.5188    0.1909 H   0  0  0  0  0  0  0  0  0  0  0  0
   -7.5394   -0.1427    0.0073 H   0  0  0  0  0  0  0  0  0  0  0  0
    8.8925   -2.2260    0.1447 H   0  0  0  0  0  0  0  0  0  0  0  0
    8.6050   -1.5689    1.7903 H   0  0  0  0  0  0  0  0  0  0  0  0
    9.1870   -3.2494    1.5839 H   0  0  0  0  0  0  0  0  0  0  0  0
   -6.9268   -4.2401   -1.5906 H   0  0  0  0  0  0  0  0  0  0  0  0
   -7.1758   -4.5517    0.1593 H   0  0  0  0  0  0  0  0  0  0  0  0
   -8.5855   -4.3209   -0.9208 H   0  0  0  0  0  0  0  0  0  0  0  0
  1  2  1  0  0  0  0
  1  6  2  0  0  0  0
  1  7  1  0  0  0  0
  2  3  2  0  0  0  0
  2 10  1  0  0  0  0
  3  4  1  0  0  0  0
  3 11  1  0  0  0  0
  4  5  2  0  0  0  0
  4 21  1  0  0  0  0
  5  6  1  0  0  0  0
  5 23  1  0  0  0  0
  6 39  1  0  0  0  0
  7  8  2  0  0  0  0
  7 40  1  0  0  0  0
  8  9  1  0  0  0  0
  8 41  1  0  0  0  0
  9 10  2  0  0  0  0
  9 42  1  0  0  0  0
 10 43  1  0  0  0  0
 11 12  2  0  0  0  0
 11 16  1  0  0  0  0
 12 13  1  0  0  0  0
 12 17  1  0  0  0  0
 13 14  2  0  0  0  0
 13 20  1  0  0  0  0
 14 15  1  0  0  0  0
 14 44  1  0  0  0  0
 15 16  2  0  0  0  0
 15 24  1  0  0  0  0
 16 22  1  0  0  0  0
 17 18  2  0  0  0  0
 17 45  1  0  0  0  0
 18 19  1  0  0  0  0
 18 46  1  0  0  0  0
 19 20  2  0  0  0  0
 19 47  1  0  0  0  0
 20 48  1  0  0  0  0
 21 49  1  0  0  0  0
 22 50  1  0  0  0  0
 23 25  2  0  0  0  0
 23 28  1  0  0  0  0
 24 29  2  0  0  0  0
 24 33  1  0  0  0  0
 25 26  1  0  0  0  0
 25 51  1  0  0  0  0
 26 27  2  0  0  0  0
 26 52  1  0  0  0  0
 27 34  1  0  0  0  0
 27 36  1  0  0  0  0
 28 34  2  0  0  0  0
 28 53  1  0  0  0  0
 29 30  1  0  0  0  0
 29 54  1  0  0  0  0
 30 31  2  0  0  0  0
 30 55  1  0  0  0  0
 31 32  1  0  0  0  0
 31 35  1  0  0  0  0
 32 33  2  0  0  0  0
 32 56  1  0  0  0  0
 33 57  1  0  0  0  0
 34 58  1  0  0  0  0
 35 37  1  0  0  0  0
 36 38  1  0  0  0  0
 37 59  1  0  0  0  0
 37 60  1  0  0  0  0
 37 61  1  0  0  0  0
 38 62  1  0  0  0  0
 38 63  1  0  0  0  0
 38 64  1  0  0  0  0
M  END
$$$$
