Title Card Required
 OpenBabel03192317463D

 42 45  0  0  0  0  0  0  0  0999 V2000
   -2.7495    1.3748   -1.2633 C   0  0  0  0  0  0  0  0  0  0  0  0
   -1.3429    1.4222   -1.0402 C   0  0  0  0  0  0  0  0  0  0  0  0
   -0.7358    0.4376   -0.1994 C   0  0  0  0  0  0  0  0  0  0  0  0
   -1.5074   -0.5585    0.3658 C   0  0  0  0  0  0  0  0  0  0  0  0
   -2.9105   -0.5988    0.1231 C   0  0  0  0  0  0  0  0  0  0  0  0
   -3.5187    0.3404   -0.6667 C   0  0  0  0  0  0  0  0  0  0  0  0
   -3.3567    2.3600   -2.0890 C   0  0  0  0  0  0  0  0  0  0  0  0
   -2.6020    3.3476   -2.6712 C   0  0  0  0  0  0  0  0  0  0  0  0
   -1.2022    3.3901   -2.4586 C   0  0  0  0  0  0  0  0  0  0  0  0
   -0.5869    2.4520   -1.6654 C   0  0  0  0  0  0  0  0  0  0  0  0
    0.7289    0.4439    0.0750 C   0  0  0  0  0  0  0  0  0  0  0  0
    1.3166    1.4261    0.9324 C   0  0  0  0  0  0  0  0  0  0  0  0
    2.7188    1.3841    1.1808 C   0  0  0  0  0  0  0  0  0  0  0  0
    3.5039    0.3750    0.5640 C   0  0  0  0  0  0  0  0  0  0  0  0
    2.9169   -0.5528   -0.2551 C   0  0  0  0  0  0  0  0  0  0  0  0
    1.5117   -0.5359   -0.5094 C   0  0  0  0  0  0  0  0  0  0  0  0
    0.5441    2.4390    1.5683 C   0  0  0  0  0  0  0  0  0  0  0  0
    1.1395    3.3607    2.3954 C   0  0  0  0  0  0  0  0  0  0  0  0
    2.5355    3.3227    2.6323 C   0  0  0  0  0  0  0  0  0  0  0  0
    3.3059    2.3544    2.0382 C   0  0  0  0  0  0  0  0  0  0  0  0
   -0.9302   -1.5172    1.1374 O   0  0  0  0  0  0  0  0  0  0  0  0
    0.9545   -1.4155   -1.3654 O   0  0  0  0  0  0  0  0  0  0  0  0
   -3.9151   -1.9937    0.9070 Br  0  0  0  0  0  0  0  0  0  0  0  0
    3.9800   -1.8504   -1.1247 Br  0  0  0  0  0  0  0  0  0  0  0  0
   -0.8541   -1.2020    2.5171 C   0  0  0  0  0  0  0  0  0  0  0  0
    0.8078   -2.7702   -0.9558 C   0  0  0  0  0  0  0  0  0  0  0  0
   -4.5941    0.2958   -0.8434 H   0  0  0  0  0  0  0  0  0  0  0  0
   -4.4353    2.3138   -2.2522 H   0  0  0  0  0  0  0  0  0  0  0  0
   -3.0768    4.0993   -3.3032 H   0  0  0  0  0  0  0  0  0  0  0  0
   -0.6084    4.1727   -2.9328 H   0  0  0  0  0  0  0  0  0  0  0  0
    0.4922    2.4852   -1.5087 H   0  0  0  0  0  0  0  0  0  0  0  0
    4.5808    0.3488    0.7355 H   0  0  0  0  0  0  0  0  0  0  0  0
   -0.5318    2.4755    1.3894 H   0  0  0  0  0  0  0  0  0  0  0  0
    0.5322    4.1300    2.8746 H   0  0  0  0  0  0  0  0  0  0  0  0
    2.9940    4.0624    3.2900 H   0  0  0  0  0  0  0  0  0  0  0  0
    4.3824    2.3123    2.2157 H   0  0  0  0  0  0  0  0  0  0  0  0
   -0.2685   -0.2817    2.6757 H   0  0  0  0  0  0  0  0  0  0  0  0
   -1.8620   -1.0769    2.9447 H   0  0  0  0  0  0  0  0  0  0  0  0
   -0.3533   -2.0430    3.0100 H   0  0  0  0  0  0  0  0  0  0  0  0
    1.1950   -3.4155   -1.7552 H   0  0  0  0  0  0  0  0  0  0  0  0
    1.3634   -2.9690   -0.0278 H   0  0  0  0  0  0  0  0  0  0  0  0
   -0.2559   -2.9794   -0.7786 H   0  0  0  0  0  0  0  0  0  0  0  0
  1  2  1  0  0  0  0
  1  6  2  0  0  0  0
  1  7  1  0  0  0  0
  2  3  2  0  0  0  0
  2 10  1  0  0  0  0
  3  4  1  0  0  0  0
  3 11  1  0  0  0  0
  4  5  2  0  0  0  0
  4 21  1  0  0  0  0
  5  6  1  0  0  0  0
  5 23  1  0  0  0  0
  6 27  1  0  0  0  0
  7  8  2  0  0  0  0
  7 28  1  0  0  0  0
  8  9  1  0  0  0  0
  8 29  1  0  0  0  0
  9 10  2  0  0  0  0
  9 30  1  0  0  0  0
 10 31  1  0  0  0  0
 11 12  2  0  0  0  0
 11 16  1  0  0  0  0
 12 13  1  0  0  0  0
 12 17  1  0  0  0  0
 13 14  2  0  0  0  0
 13 20  1  0  0  0  0
 14 15  1  0  0  0  0
 14 32  1  0  0  0  0
 15 16  2  0  0  0  0
 15 24  1  0  0  0  0
 16 22  1  0  0  0  0
 17 18  2  0  0  0  0
 17 33  1  0  0  0  0
 18 19  1  0  0  0  0
 18 34  1  0  0  0  0
 19 20  2  0  0  0  0
 19 35  1  0  0  0  0
 20 36  1  0  0  0  0
 21 25  1  0  0  0  0
 22 26  1  0  0  0  0
 25 37  1  0  0  0  0
 25 38  1  0  0  0  0
 25 39  1  0  0  0  0
 26 40  1  0  0  0  0
 26 41  1  0  0  0  0
 26 42  1  0  0  0  0
M  END
$$$$
