Title Card Required
 OpenBabel03192317513D

 40 41  0  0  1  0  0  0  0  0999 V2000
   -3.1054   -0.8610   -0.0720 C   0  0  0  0  0  0  0  0  0  0  0  0
   -2.0652   -0.9078    0.8615 C   0  0  0  0  0  0  0  0  0  0  0  0
   -1.2340    0.2009    1.0289 C   0  0  0  0  0  0  0  0  0  0  0  0
   -1.4223    1.3673    0.2878 C   0  0  0  0  0  0  0  0  0  0  0  0
   -2.4745    1.4014   -0.6362 C   0  0  0  0  0  0  0  0  0  0  0  0
   -3.3066    0.3063   -0.8203 C   0  0  0  0  0  0  0  0  0  0  0  0
   -0.4624    2.5290    0.3923 C   0  0  2  0  0  0  0  0  0  0  0  0
    0.6829    2.4017   -0.6611 C   0  0  2  0  0  0  0  0  0  0  0  0
    1.3835    1.0629   -0.5728 C   0  0  0  0  0  0  0  0  0  0  0  0
    2.2814    0.7649    0.4518 C   0  0  0  0  0  0  0  0  0  0  0  0
    2.8750   -0.4949    0.5633 C   0  0  0  0  0  0  0  0  0  0  0  0
    2.5630   -1.4916   -0.3650 C   0  0  0  0  0  0  0  0  0  0  0  0
    1.6581   -1.2096   -1.3963 C   0  0  0  0  0  0  0  0  0  0  0  0
    1.0834    0.0489   -1.4920 C   0  0  0  0  0  0  0  0  0  0  0  0
   -3.9604   -1.8822   -0.3127 O   0  0  0  0  0  0  0  0  0  0  0  0
   -3.8005   -3.0674    0.4181 C   0  0  0  0  0  0  0  0  0  0  0  0
    3.0809   -2.7426   -0.3447 O   0  0  0  0  0  0  0  0  0  0  0  0
    3.9988   -3.0658    0.6629 C   0  0  0  0  0  0  0  0  0  0  0  0
    0.1078    2.6248    1.7255 N   0  0  0  0  0  0  0  0  0  0  0  0
    1.6366    3.4993   -0.6112 N   0  0  0  0  0  0  0  0  0  0  0  0
   -1.8825   -1.8023    1.4551 H   0  0  0  0  0  0  0  0  0  0  0  0
   -0.4063    0.1575    1.7390 H   0  0  0  0  0  0  0  0  0  0  0  0
   -2.6459    2.3081   -1.2231 H   0  0  0  0  0  0  0  0  0  0  0  0
   -4.1302    0.3245   -1.5345 H   0  0  0  0  0  0  0  0  0  0  0  0
   -1.0237    3.4440    0.1017 H   0  0  0  0  0  0  0  0  0  0  0  0
    0.1814    2.4394   -1.6426 H   0  0  0  0  0  0  0  0  0  0  0  0
    2.5077    1.5136    1.2123 H   0  0  0  0  0  0  0  0  0  0  0  0
    3.5715   -0.6842    1.3790 H   0  0  0  0  0  0  0  0  0  0  0  0
    1.4262   -2.0006   -2.1099 H   0  0  0  0  0  0  0  0  0  0  0  0
    0.3693    0.2496   -2.2943 H   0  0  0  0  0  0  0  0  0  0  0  0
   -2.8118   -3.5231    0.2414 H   0  0  0  0  0  0  0  0  0  0  0  0
   -3.9238   -2.8956    1.5008 H   0  0  0  0  0  0  0  0  0  0  0  0
   -4.5791   -3.7577    0.0745 H   0  0  0  0  0  0  0  0  0  0  0  0
    4.8947   -2.4238    0.6183 H   0  0  0  0  0  0  0  0  0  0  0  0
    3.5490   -2.9760    1.6663 H   0  0  0  0  0  0  0  0  0  0  0  0
    4.2964   -4.1074    0.4969 H   0  0  0  0  0  0  0  0  0  0  0  0
    0.6733    3.4679    1.7964 H   0  0  0  0  0  0  0  0  0  0  0  0
   -0.6315    2.6985    2.4215 H   0  0  0  0  0  0  0  0  0  0  0  0
    1.1664    4.3962   -0.5037 H   0  0  0  0  0  0  0  0  0  0  0  0
    2.2927    3.3898    0.1579 H   0  0  0  0  0  0  0  0  0  0  0  0
  1  2  2  0  0  0  0
  1  6  1  0  0  0  0
  1 15  1  0  0  0  0
  2  3  1  0  0  0  0
  2 21  1  0  0  0  0
  3  4  2  0  0  0  0
  3 22  1  0  0  0  0
  4  5  1  0  0  0  0
  4  7  1  0  0  0  0
  5  6  2  0  0  0  0
  5 23  1  0  0  0  0
  6 24  1  0  0  0  0
  7  8  1  0  0  0  0
  7 19  1  0  0  0  0
  7 25  1  6  0  0  0
  8  9  1  0  0  0  0
  8 20  1  0  0  0  0
  8 26  1  6  0  0  0
  9 10  2  0  0  0  0
  9 14  1  0  0  0  0
 10 11  1  0  0  0  0
 10 27  1  0  0  0  0
 11 12  2  0  0  0  0
 11 28  1  0  0  0  0
 12 13  1  0  0  0  0
 12 17  1  0  0  0  0
 13 14  2  0  0  0  0
 13 29  1  0  0  0  0
 14 30  1  0  0  0  0
 15 16  1  0  0  0  0
 16 31  1  0  0  0  0
 16 32  1  0  0  0  0
 16 33  1  0  0  0  0
 17 18  1  0  0  0  0
 18 34  1  0  0  0  0
 18 35  1  0  0  0  0
 18 36  1  0  0  0  0
 19 37  1  0  0  0  0
 19 38  1  0  0  0  0
 20 39  1  0  0  0  0
 20 40  1  0  0  0  0
M  END
$$$$
