Title Card Required
 OpenBabel03192317523D

 14 14  0  0  1  0  0  0  0  0999 V2000
   -0.9819   -0.9960   -0.3663 N   0  0  0  0  0  0  0  0  0  0  0  0
   -0.2270   -0.1001    0.5184 C   0  0  2  0  0  0  0  0  0  0  0  0
   -1.2615    1.0016    0.2564 C   0  0  0  0  0  0  0  0  0  0  0  0
   -2.1702   -0.1357   -0.2518 C   0  0  0  0  0  0  0  0  0  0  0  0
    1.1861    0.1490    0.0434 C   0  0  0  0  0  0  0  0  0  0  0  0
    1.6150    1.1936   -0.3588 O   0  0  0  0  0  0  0  0  0  0  0  0
    1.9223   -0.9685    0.1088 O   0  0  0  0  0  0  0  0  0  0  0  0
   -1.0722   -1.9618   -0.0623 H   0  0  0  0  0  0  0  0  0  0  0  0
   -0.1895   -0.4223    1.5762 H   0  0  0  0  0  0  0  0  0  0  0  0
   -1.6046    1.5844    1.1182 H   0  0  0  0  0  0  0  0  0  0  0  0
   -0.9197    1.6740   -0.5393 H   0  0  0  0  0  0  0  0  0  0  0  0
   -2.7118    0.0286   -1.1949 H   0  0  0  0  0  0  0  0  0  0  0  0
   -2.8900   -0.4627    0.5192 H   0  0  0  0  0  0  0  0  0  0  0  0
    2.7974   -0.7572   -0.2518 H   0  0  0  0  0  0  0  0  0  0  0  0
  1  2  1  0  0  0  0
  1  4  1  0  0  0  0
  1  8  1  0  0  0  0
  2  3  1  0  0  0  0
  2  5  1  0  0  0  0
  2  9  1  1  0  0  0
  3  4  1  0  0  0  0
  3 10  1  0  0  0  0
  3 11  1  0  0  0  0
  4 12  1  0  0  0  0
  4 13  1  0  0  0  0
  5  6  2  0  0  0  0
  5  7  1  0  0  0  0
  7 14  1  0  0  0  0
M  END
$$$$
