Title Card Required
 OpenBabel03192317503D

 25 25  0  0  1  0  0  0  0  0999 V2000
   -1.7449    1.0259   -0.0458 C   0  0  0  0  0  0  0  0  0  0  0  0
   -1.6787   -0.8186   -0.1015 S   0  0  0  0  0  0  0  0  0  0  0  0
   -2.0914   -1.2308    1.2191 O   0  0  0  0  0  0  0  0  0  0  0  0
   -2.3539   -1.2053   -1.3167 O   0  0  0  0  0  0  0  0  0  0  0  0
   -0.0775   -1.0729   -0.3212 N   0  0  0  0  0  0  0  0  0  0  0  0
    0.8240   -1.3334    0.8018 C   0  0  0  0  0  0  0  0  0  0  0  0
    2.8509   -0.9816   -0.5756 N   0  0  0  0  0  0  0  0  0  0  0  0
    2.1492   -0.6060    0.6489 C   0  0  1  0  0  0  0  0  0  0  0  0
    2.0966    0.9300    0.6223 C   0  0  0  0  0  0  0  0  0  0  0  0
    3.4379    1.3147   -0.0347 C   0  0  0  0  0  0  0  0  0  0  0  0
    3.9527   -0.0201   -0.6480 C   0  0  0  0  0  0  0  0  0  0  0  0
   -1.0611    1.4561    1.0043 F   0  0  0  0  0  0  0  0  0  0  0  0
   -2.9980    1.4159    0.0603 F   0  0  0  0  0  0  0  0  0  0  0  0
   -1.2135    1.5373   -1.1425 F   0  0  0  0  0  0  0  0  0  0  0  0
    0.0921   -1.5490   -1.2046 H   0  0  0  0  0  0  0  0  0  0  0  0
    0.3130   -1.0034    1.7164 H   0  0  0  0  0  0  0  0  0  0  0  0
    1.0045   -2.4147    0.8941 H   0  0  0  0  0  0  0  0  0  0  0  0
    2.2225   -0.7779   -1.3553 H   0  0  0  0  0  0  0  0  0  0  0  0
    2.7793   -0.9275    1.4977 H   0  0  0  0  0  0  0  0  0  0  0  0
    1.2527    1.2413   -0.0119 H   0  0  0  0  0  0  0  0  0  0  0  0
    1.9489    1.3758    1.6158 H   0  0  0  0  0  0  0  0  0  0  0  0
    3.3012    2.0900   -0.8005 H   0  0  0  0  0  0  0  0  0  0  0  0
    4.1518    1.7112    0.7003 H   0  0  0  0  0  0  0  0  0  0  0  0
    4.3085    0.0812   -1.6815 H   0  0  0  0  0  0  0  0  0  0  0  0
    4.7927   -0.4098   -0.0531 H   0  0  0  0  0  0  0  0  0  0  0  0
  1  2  1  0  0  0  0
  1 12  1  0  0  0  0
  1 13  1  0  0  0  0
  1 14  1  0  0  0  0
  2  3  2  0  0  0  0
  2  4  2  0  0  0  0
  2  5  1  0  0  0  0
  5  6  1  0  0  0  0
  5 15  1  0  0  0  0
  6  8  1  0  0  0  0
  6 16  1  0  0  0  0
  6 17  1  0  0  0  0
  7  8  1  0  0  0  0
  7 11  1  0  0  0  0
  7 18  1  0  0  0  0
  8  9  1  0  0  0  0
  8 19  1  1  0  0  0
  9 10  1  0  0  0  0
  9 20  1  0  0  0  0
  9 21  1  0  0  0  0
 10 11  1  0  0  0  0
 10 22  1  0  0  0  0
 10 23  1  0  0  0  0
 11 24  1  0  0  0  0
 11 25  1  0  0  0  0
M  END
$$$$
