Title Card Required
 OpenBabel03192317493D

 19 19  0  0  1  0  0  0  0  0999 V2000
    1.5799    0.8070   -0.6829 N   0  0  0  0  0  0  0  0  0  0  0  0
    1.3857    0.1064    0.5829 C   0  0  1  0  0  0  0  0  0  0  0  0
    0.2369    0.8736    1.2796 C   0  0  0  0  0  0  0  0  0  0  0  0
   -0.1969    1.9379    0.2542 C   0  0  0  0  0  0  0  0  0  0  0  0
    0.3046    1.3739   -1.0764 C   0  0  0  0  0  0  0  0  0  0  0  0
    1.0088   -1.3514    0.3792 C   0  0  0  0  0  0  0  0  0  0  0  0
    1.9795   -1.9665   -0.3792 F   0  0  0  0  0  0  0  0  0  0  0  0
    2.0104    0.2072   -1.3826 H   0  0  0  0  0  0  0  0  0  0  0  0
    2.3198    0.1373    1.1668 H   0  0  0  0  0  0  0  0  0  0  0  0
   -0.5950    0.1880    1.5066 H   0  0  0  0  0  0  0  0  0  0  0  0
    0.5545    1.3230    2.2283 H   0  0  0  0  0  0  0  0  0  0  0  0
   -1.2778    2.1462    0.2749 H   0  0  0  0  0  0  0  0  0  0  0  0
    0.3211    2.8863    0.4509 H   0  0  0  0  0  0  0  0  0  0  0  0
   -0.4133    0.6252   -1.4801 H   0  0  0  0  0  0  0  0  0  0  0  0
    0.4322    2.1468   -1.8480 H   0  0  0  0  0  0  0  0  0  0  0  0
    0.9231   -1.8788    1.3432 H   0  0  0  0  0  0  0  0  0  0  0  0
    0.0455   -1.4340   -0.1526 H   0  0  0  0  0  0  0  0  0  0  0  0
   -2.1968    0.3660   -0.4576 H   0  0  0  0  0  0  0  0  0  0  0  0
   -2.7902   -0.7239   -0.1161 Cl  0  0  0  0  0  0  0  0  0  0  0  0
  1  2  1  0  0  0  0
  1  5  1  0  0  0  0
  1  8  1  0  0  0  0
  2  3  1  0  0  0  0
  2  6  1  0  0  0  0
  2  9  1  1  0  0  0
  3  4  1  0  0  0  0
  3 10  1  0  0  0  0
  3 11  1  0  0  0  0
  4  5  1  0  0  0  0
  4 12  1  0  0  0  0
  4 13  1  0  0  0  0
  5 14  1  0  0  0  0
  5 15  1  0  0  0  0
  6  7  1  0  0  0  0
  6 16  1  0  0  0  0
  6 17  1  0  0  0  0
 10 18  1  0  0  0  0
 18 19  1  0  0  0  0
M  END
$$$$
