Title Card Required
 OpenBabel03192317483D

 62 67  0  0  0  0  0  0  0  0999 V2000
    1.7553    1.9811   -2.5088 C   0  0  0  0  0  0  0  0  0  0  0  0
    0.5911    1.9917   -1.6871 C   0  0  0  0  0  0  0  0  0  0  0  0
    0.5898    1.2624   -0.4601 C   0  0  0  0  0  0  0  0  0  0  0  0
    1.7118    0.5477   -0.0845 C   0  0  0  0  0  0  0  0  0  0  0  0
    2.8794    0.5143   -0.9136 C   0  0  0  0  0  0  0  0  0  0  0  0
    2.8825    1.2322   -2.0887 C   0  0  0  0  0  0  0  0  0  0  0  0
   -0.5972    1.2772    0.4393 C   0  0  0  0  0  0  0  0  0  0  0  0
   -0.5997    2.0477    1.6412 C   0  0  0  0  0  0  0  0  0  0  0  0
   -1.7638    2.0624    2.4628 C   0  0  0  0  0  0  0  0  0  0  0  0
   -2.8904    1.2996    2.0671 C   0  0  0  0  0  0  0  0  0  0  0  0
   -2.8871    0.5445    0.9157 C   0  0  0  0  0  0  0  0  0  0  0  0
   -1.7189    0.5499    0.0874 C   0  0  0  0  0  0  0  0  0  0  0  0
    1.6774   -0.1016    1.1019 O   0  0  0  0  0  0  0  0  0  0  0  0
   -1.6834   -0.1400   -1.0760 O   0  0  0  0  0  0  0  0  0  0  0  0
    1.7607    2.7143   -3.7268 C   0  0  0  0  0  0  0  0  0  0  0  0
    0.6607    3.4369   -4.1155 C   0  0  0  0  0  0  0  0  0  0  0  0
   -0.4952    3.4562   -3.2954 C   0  0  0  0  0  0  0  0  0  0  0  0
   -0.5311    2.7545   -2.1152 C   0  0  0  0  0  0  0  0  0  0  0  0
    0.5210    2.8269    2.0434 C   0  0  0  0  0  0  0  0  0  0  0  0
    0.4833    3.5680    3.1992 C   0  0  0  0  0  0  0  0  0  0  0  0
   -0.6724    3.5733    4.0198 C   0  0  0  0  0  0  0  0  0  0  0  0
   -1.7707    2.8356    3.6559 C   0  0  0  0  0  0  0  0  0  0  0  0
    4.0658   -0.2867   -0.5123 C   0  0  0  0  0  0  0  0  0  0  0  0
   -4.0757   -0.2649    0.5389 C   0  0  0  0  0  0  0  0  0  0  0  0
    3.9327   -1.6312   -0.1331 C   0  0  0  0  0  0  0  0  0  0  0  0
    5.0489   -2.3862    0.2216 C   0  0  0  0  0  0  0  0  0  0  0  0
    6.3122   -1.8026    0.1975 C   0  0  0  0  0  0  0  0  0  0  0  0
    6.4641   -0.4667   -0.1791 C   0  0  0  0  0  0  0  0  0  0  0  0
    5.3481    0.2837   -0.5285 C   0  0  0  0  0  0  0  0  0  0  0  0
   -5.3542    0.3077    0.5401 C   0  0  0  0  0  0  0  0  0  0  0  0
   -6.4766   -0.4504    0.2174 C   0  0  0  0  0  0  0  0  0  0  0  0
   -6.3290   -1.7943   -0.1179 C   0  0  0  0  0  0  0  0  0  0  0  0
   -5.0646   -2.3842   -0.1217 C   0  0  0  0  0  0  0  0  0  0  0  0
   -3.9466   -1.6243    0.2044 C   0  0  0  0  0  0  0  0  0  0  0  0
   -7.5200   -2.6247   -0.5143 C   0  0  0  0  0  0  0  0  0  0  0  0
   -8.6702   -2.0273   -0.2020 F   0  0  0  0  0  0  0  0  0  0  0  0
   -7.5363   -2.8550   -1.8305 F   0  0  0  0  0  0  0  0  0  0  0  0
   -7.5042   -3.8166    0.0853 F   0  0  0  0  0  0  0  0  0  0  0  0
    7.5382   -2.5999    0.5539 C   0  0  0  0  0  0  0  0  0  0  0  0
    7.2274   -3.7799    1.0901 F   0  0  0  0  0  0  0  0  0  0  0  0
    8.2953   -2.8354   -0.5204 F   0  0  0  0  0  0  0  0  0  0  0  0
    8.3042   -1.9461    1.4306 F   0  0  0  0  0  0  0  0  0  0  0  0
    3.7672    1.2040   -2.7296 H   0  0  0  0  0  0  0  0  0  0  0  0
   -3.7752    1.2916    2.7084 H   0  0  0  0  0  0  0  0  0  0  0  0
    2.5614   -0.4066    1.3408 H   0  0  0  0  0  0  0  0  0  0  0  0
   -2.5680   -0.4485   -1.3082 H   0  0  0  0  0  0  0  0  0  0  0  0
    2.6597    2.6927   -4.3467 H   0  0  0  0  0  0  0  0  0  0  0  0
    0.6727    3.9991   -5.0501 H   0  0  0  0  0  0  0  0  0  0  0  0
   -1.3650    4.0379   -3.6052 H   0  0  0  0  0  0  0  0  0  0  0  0
   -1.4223    2.7787   -1.4868 H   0  0  0  0  0  0  0  0  0  0  0  0
    1.4122    2.8323    1.4146 H   0  0  0  0  0  0  0  0  0  0  0  0
    1.3516    4.1619    3.4894 H   0  0  0  0  0  0  0  0  0  0  0  0
   -0.6853    4.1662    4.9353 H   0  0  0  0  0  0  0  0  0  0  0  0
   -2.6695    2.8320    4.2763 H   0  0  0  0  0  0  0  0  0  0  0  0
    2.9438   -2.0946   -0.1341 H   0  0  0  0  0  0  0  0  0  0  0  0
    4.9392   -3.4314    0.5115 H   0  0  0  0  0  0  0  0  0  0  0  0
    7.4573   -0.0139   -0.1846 H   0  0  0  0  0  0  0  0  0  0  0  0
    5.4593    1.3334   -0.8053 H   0  0  0  0  0  0  0  0  0  0  0  0
   -5.4632    1.3649    0.7878 H   0  0  0  0  0  0  0  0  0  0  0  0
   -7.4690    0.0010    0.2215 H   0  0  0  0  0  0  0  0  0  0  0  0
   -4.9592   -3.4430   -0.3646 H   0  0  0  0  0  0  0  0  0  0  0  0
   -2.9596   -2.0911    0.2248 H   0  0  0  0  0  0  0  0  0  0  0  0
  1  2  1  0  0  0  0
  1  6  2  0  0  0  0
  1 15  1  0  0  0  0
  2  3  2  0  0  0  0
  2 18  1  0  0  0  0
  3  4  1  0  0  0  0
  3  7  1  0  0  0  0
  4  5  2  0  0  0  0
  4 13  1  0  0  0  0
  5  6  1  0  0  0  0
  5 23  1  0  0  0  0
  6 43  1  0  0  0  0
  7  8  2  0  0  0  0
  7 12  1  0  0  0  0
  8  9  1  0  0  0  0
  8 19  1  0  0  0  0
  9 10  2  0  0  0  0
  9 22  1  0  0  0  0
 10 11  1  0  0  0  0
 10 44  1  0  0  0  0
 11 12  2  0  0  0  0
 11 24  1  0  0  0  0
 12 14  1  0  0  0  0
 13 45  1  0  0  0  0
 14 46  1  0  0  0  0
 15 16  2  0  0  0  0
 15 47  1  0  0  0  0
 16 17  1  0  0  0  0
 16 48  1  0  0  0  0
 17 18  2  0  0  0  0
 17 49  1  0  0  0  0
 18 50  1  0  0  0  0
 19 20  2  0  0  0  0
 19 51  1  0  0  0  0
 20 21  1  0  0  0  0
 20 52  1  0  0  0  0
 21 22  2  0  0  0  0
 21 53  1  0  0  0  0
 22 54  1  0  0  0  0
 23 25  2  0  0  0  0
 23 29  1  0  0  0  0
 24 30  2  0  0  0  0
 24 34  1  0  0  0  0
 25 26  1  0  0  0  0
 25 55  1  0  0  0  0
 26 27  2  0  0  0  0
 26 56  1  0  0  0  0
 27 28  1  0  0  0  0
 27 39  1  0  0  0  0
 28 29  2  0  0  0  0
 28 57  1  0  0  0  0
 29 58  1  0  0  0  0
 30 31  1  0  0  0  0
 30 59  1  0  0  0  0
 31 32  2  0  0  0  0
 31 60  1  0  0  0  0
 32 33  1  0  0  0  0
 32 35  1  0  0  0  0
 33 34  2  0  0  0  0
 33 61  1  0  0  0  0
 34 62  1  0  0  0  0
 35 36  1  0  0  0  0
 35 37  1  0  0  0  0
 35 38  1  0  0  0  0
 39 40  1  0  0  0  0
 39 41  1  0  0  0  0
 39 42  1  0  0  0  0
M  END
$$$$
