Title Card Required
 OpenBabel03192317553D

 64 70  0  0  0  0  0  0  0  0999 V2000
    1.1159   -0.0305   -0.8629 O   0  0  0  0  0  0  0  0  0  0  0  0
    0.1542   -1.1582   -0.2099 P   0  0  0  0  0  0  0  0  0  0  0  0
   -0.9889   -0.2367    0.4894 O   0  0  0  0  0  0  0  0  0  0  0  0
   -1.5285    0.8429   -0.1860 C   0  0  0  0  0  0  0  0  0  0  0  0
   -0.7475    1.9668   -0.3851 C   0  0  0  0  0  0  0  0  0  0  0  0
    0.6192    2.0288    0.2053 C   0  0  0  0  0  0  0  0  0  0  0  0
    1.5235    1.0216   -0.0692 C   0  0  0  0  0  0  0  0  0  0  0  0
   -2.8961    0.7705   -0.5822 C   0  0  0  0  0  0  0  0  0  0  0  0
   -3.4235    1.8540   -1.2481 C   0  0  0  0  0  0  0  0  0  0  0  0
   -2.6406    2.9892   -1.5800 C   0  0  0  0  0  0  0  0  0  0  0  0
   -3.1850    4.0594   -2.3415 C   0  0  0  0  0  0  0  0  0  0  0  0
   -2.4118    5.1386   -2.6879 C   0  0  0  0  0  0  0  0  0  0  0  0
   -1.0526    5.1885   -2.2931 C   0  0  0  0  0  0  0  0  0  0  0  0
   -0.5014    4.1742   -1.5477 C   0  0  0  0  0  0  0  0  0  0  0  0
   -1.2827    3.0511   -1.1573 C   0  0  0  0  0  0  0  0  0  0  0  0
    2.8520    0.9937    0.4481 C   0  0  0  0  0  0  0  0  0  0  0  0
    3.2371    2.0395    1.2573 C   0  0  0  0  0  0  0  0  0  0  0  0
    2.3460    3.0862    1.6077 C   0  0  0  0  0  0  0  0  0  0  0  0
    2.7578    4.1293    2.4821 C   0  0  0  0  0  0  0  0  0  0  0  0
    1.8784    5.1088    2.8687 C   0  0  0  0  0  0  0  0  0  0  0  0
    0.5414    5.0787    2.4037 C   0  0  0  0  0  0  0  0  0  0  0  0
    0.1179    4.0926    1.5455 C   0  0  0  0  0  0  0  0  0  0  0  0
    1.0127    3.0782    1.1036 C   0  0  0  0  0  0  0  0  0  0  0  0
    3.7761   -0.1332    0.1547 C   0  0  0  0  0  0  0  0  0  0  0  0
    3.9032   -0.6636   -1.1356 C   0  0  0  0  0  0  0  0  0  0  0  0
    4.7971   -1.7003   -1.3887 C   0  0  0  0  0  0  0  0  0  0  0  0
    5.5673   -2.2210   -0.3523 C   0  0  0  0  0  0  0  0  0  0  0  0
    5.4485   -1.7087    0.9399 C   0  0  0  0  0  0  0  0  0  0  0  0
    4.5585   -0.6711    1.1879 C   0  0  0  0  0  0  0  0  0  0  0  0
    6.5500   -3.3338   -0.6003 C   0  0  0  0  0  0  0  0  0  0  0  0
    6.4586   -3.8151   -1.8395 F   0  0  0  0  0  0  0  0  0  0  0  0
    7.8082   -2.9196   -0.4239 F   0  0  0  0  0  0  0  0  0  0  0  0
    6.3588   -4.3489    0.2454 F   0  0  0  0  0  0  0  0  0  0  0  0
   -3.7617   -0.3895   -0.2348 C   0  0  0  0  0  0  0  0  0  0  0  0
   -4.9856   -0.1497    0.4013 C   0  0  0  0  0  0  0  0  0  0  0  0
   -5.8419   -1.2007    0.7220 C   0  0  0  0  0  0  0  0  0  0  0  0
   -5.4735   -2.5041    0.4036 C   0  0  0  0  0  0  0  0  0  0  0  0
   -4.2590   -2.7575   -0.2365 C   0  0  0  0  0  0  0  0  0  0  0  0
   -3.4047   -1.7082   -0.5548 C   0  0  0  0  0  0  0  0  0  0  0  0
   -6.3616   -3.6675    0.7516 C   0  0  0  0  0  0  0  0  0  0  0  0
   -7.5209   -3.2741    1.2819 F   0  0  0  0  0  0  0  0  0  0  0  0
   -6.6424   -4.4057   -0.3255 F   0  0  0  0  0  0  0  0  0  0  0  0
   -5.7748   -4.4808    1.6338 F   0  0  0  0  0  0  0  0  0  0  0  0
    0.9052   -1.7146    1.0732 O   0  0  0  0  0  0  0  0  0  0  0  0
   -0.2585   -2.1538   -1.1720 O   0  0  0  0  0  0  0  0  0  0  0  0
   -4.4686    1.8251   -1.5646 H   0  0  0  0  0  0  0  0  0  0  0  0
   -4.2293    3.9986   -2.6539 H   0  0  0  0  0  0  0  0  0  0  0  0
   -2.8364    5.9523   -3.2771 H   0  0  0  0  0  0  0  0  0  0  0  0
   -0.4347    6.0371   -2.5900 H   0  0  0  0  0  0  0  0  0  0  0  0
    0.5495    4.2193   -1.2611 H   0  0  0  0  0  0  0  0  0  0  0  0
    4.2575    2.0683    1.6458 H   0  0  0  0  0  0  0  0  0  0  0  0
    3.7867    4.1277    2.8474 H   0  0  0  0  0  0  0  0  0  0  0  0
    2.2013    5.9029    3.5428 H   0  0  0  0  0  0  0  0  0  0  0  0
   -0.1621    5.8437    2.7351 H   0  0  0  0  0  0  0  0  0  0  0  0
   -0.9165    4.0783    1.2034 H   0  0  0  0  0  0  0  0  0  0  0  0
    3.3001   -0.2608   -1.9485 H   0  0  0  0  0  0  0  0  0  0  0  0
    4.8949   -2.1091   -2.3943 H   0  0  0  0  0  0  0  0  0  0  0  0
    6.0445   -2.1312    1.7507 H   0  0  0  0  0  0  0  0  0  0  0  0
    4.4511   -0.2827    2.2024 H   0  0  0  0  0  0  0  0  0  0  0  0
   -5.2616    0.8731    0.6645 H   0  0  0  0  0  0  0  0  0  0  0  0
   -6.7908   -1.0106    1.2236 H   0  0  0  0  0  0  0  0  0  0  0  0
   -3.9803   -3.7815   -0.4921 H   0  0  0  0  0  0  0  0  0  0  0  0
   -2.4631   -1.9205   -1.0632 H   0  0  0  0  0  0  0  0  0  0  0  0
    0.9947   -1.0758    1.7951 H   0  0  0  0  0  0  0  0  0  0  0  0
  1  2  1  0  0  0  0
  1  7  1  0  0  0  0
  2  3  1  0  0  0  0
  2 44  1  0  0  0  0
  2 45  2  0  0  0  0
  3  4  1  0  0  0  0
  4  5  2  0  0  0  0
  4  8  1  0  0  0  0
  5  6  1  0  0  0  0
  5 15  1  0  0  0  0
  6  7  2  0  0  0  0
  6 23  1  0  0  0  0
  7 16  1  0  0  0  0
  8  9  2  0  0  0  0
  8 34  1  0  0  0  0
  9 10  1  0  0  0  0
  9 46  1  0  0  0  0
 10 11  2  0  0  0  0
 10 15  1  0  0  0  0
 11 12  1  0  0  0  0
 11 47  1  0  0  0  0
 12 13  2  0  0  0  0
 12 48  1  0  0  0  0
 13 14  1  0  0  0  0
 13 49  1  0  0  0  0
 14 15  2  0  0  0  0
 14 50  1  0  0  0  0
 16 17  2  0  0  0  0
 16 24  1  0  0  0  0
 17 18  1  0  0  0  0
 17 51  1  0  0  0  0
 18 19  2  0  0  0  0
 18 23  1  0  0  0  0
 19 20  1  0  0  0  0
 19 52  1  0  0  0  0
 20 21  2  0  0  0  0
 20 53  1  0  0  0  0
 21 22  1  0  0  0  0
 21 54  1  0  0  0  0
 22 23  2  0  0  0  0
 22 55  1  0  0  0  0
 24 25  2  0  0  0  0
 24 29  1  0  0  0  0
 25 26  1  0  0  0  0
 25 56  1  0  0  0  0
 26 27  2  0  0  0  0
 26 57  1  0  0  0  0
 27 28  1  0  0  0  0
 27 30  1  0  0  0  0
 28 29  2  0  0  0  0
 28 58  1  0  0  0  0
 29 59  1  0  0  0  0
 30 31  1  0  0  0  0
 30 32  1  0  0  0  0
 30 33  1  0  0  0  0
 34 35  2  0  0  0  0
 34 39  1  0  0  0  0
 35 36  1  0  0  0  0
 35 60  1  0  0  0  0
 36 37  2  0  0  0  0
 36 61  1  0  0  0  0
 37 38  1  0  0  0  0
 37 40  1  0  0  0  0
 38 39  2  0  0  0  0
 38 62  1  0  0  0  0
 39 63  1  0  0  0  0
 40 41  1  0  0  0  0
 40 42  1  0  0  0  0
 40 43  1  0  0  0  0
 44 64  1  0  0  0  0
M  END
$$$$
