Title Card Required
 OpenBabel03192317493D

 40 43  0  0  0  0  0  0  0  0999 V2000
   -2.9257    0.8076    0.3703 C   0  0  0  0  0  0  0  0  0  0  0  0
   -1.6190    0.7592   -0.1961 C   0  0  0  0  0  0  0  0  0  0  0  0
   -0.6791   -0.2121    0.2791 C   0  0  0  0  0  0  0  0  0  0  0  0
   -1.0518   -1.0818    1.2905 C   0  0  0  0  0  0  0  0  0  0  0  0
   -2.3583   -1.0236    1.8495 C   0  0  0  0  0  0  0  0  0  0  0  0
   -3.2691   -0.1059    1.4025 C   0  0  0  0  0  0  0  0  0  0  0  0
   -3.8558    1.7694   -0.1086 C   0  0  0  0  0  0  0  0  0  0  0  0
   -3.5076    2.6479   -1.1045 C   0  0  0  0  0  0  0  0  0  0  0  0
   -2.2084    2.6061   -1.6658 C   0  0  0  0  0  0  0  0  0  0  0  0
   -1.2875    1.6880   -1.2236 C   0  0  0  0  0  0  0  0  0  0  0  0
    0.6941   -0.1969   -0.3165 C   0  0  0  0  0  0  0  0  0  0  0  0
    1.6661    0.6532    0.3091 C   0  0  0  0  0  0  0  0  0  0  0  0
    2.9716    0.7624   -0.2496 C   0  0  0  0  0  0  0  0  0  0  0  0
    3.2869    0.0294   -1.4258 C   0  0  0  0  0  0  0  0  0  0  0  0
    2.3468   -0.7676   -2.0151 C   0  0  0  0  0  0  0  0  0  0  0  0
    1.0398   -0.8879   -1.4663 C   0  0  0  0  0  0  0  0  0  0  0  0
    1.3647    1.4040    1.4809 C   0  0  0  0  0  0  0  0  0  0  0  0
    2.3110    2.2106    2.0652 C   0  0  0  0  0  0  0  0  0  0  0  0
    3.6084    2.3133    1.5085 C   0  0  0  0  0  0  0  0  0  0  0  0
    3.9281    1.6052    0.3764 C   0  0  0  0  0  0  0  0  0  0  0  0
   -0.0940   -2.1175    1.7829 C   0  0  0  0  0  0  0  0  0  0  0  0
    1.0396   -2.2617    1.4131 O   0  0  0  0  0  0  0  0  0  0  0  0
   -0.6370   -2.9132    2.7208 O   0  0  0  0  0  0  0  0  0  0  0  0
    0.1307   -1.8040   -2.2242 C   0  0  0  0  0  0  0  0  0  0  0  0
    0.4370   -2.3311   -3.2612 O   0  0  0  0  0  0  0  0  0  0  0  0
   -1.0660   -2.0065   -1.6592 O   0  0  0  0  0  0  0  0  0  0  0  0
   -2.6176   -1.7253    2.6404 H   0  0  0  0  0  0  0  0  0  0  0  0
   -4.2708   -0.0623    1.8340 H   0  0  0  0  0  0  0  0  0  0  0  0
   -4.8544    1.7951    0.3322 H   0  0  0  0  0  0  0  0  0  0  0  0
   -4.2298    3.3816   -1.4659 H   0  0  0  0  0  0  0  0  0  0  0  0
   -1.9374    3.3090   -2.4546 H   0  0  0  0  0  0  0  0  0  0  0  0
   -0.2885    1.6656   -1.6602 H   0  0  0  0  0  0  0  0  0  0  0  0
    4.2885    0.1168   -1.8508 H   0  0  0  0  0  0  0  0  0  0  0  0
    2.5666   -1.3350   -2.9192 H   0  0  0  0  0  0  0  0  0  0  0  0
    0.3676    1.3341    1.9173 H   0  0  0  0  0  0  0  0  0  0  0  0
    2.0611    2.7773    2.9632 H   0  0  0  0  0  0  0  0  0  0  0  0
    4.3515    2.9580    1.9801 H   0  0  0  0  0  0  0  0  0  0  0  0
    4.9250    1.6789   -0.0628 H   0  0  0  0  0  0  0  0  0  0  0  0
    0.0512   -3.5466    2.9733 H   0  0  0  0  0  0  0  0  0  0  0  0
   -1.5521   -2.6015   -2.2502 H   0  0  0  0  0  0  0  0  0  0  0  0
  1  2  1  0  0  0  0
  1  6  2  0  0  0  0
  1  7  1  0  0  0  0
  2  3  2  0  0  0  0
  2 10  1  0  0  0  0
  3  4  1  0  0  0  0
  3 11  1  0  0  0  0
  4  5  2  0  0  0  0
  4 21  1  0  0  0  0
  5  6  1  0  0  0  0
  5 27  1  0  0  0  0
  6 28  1  0  0  0  0
  7  8  2  0  0  0  0
  7 29  1  0  0  0  0
  8  9  1  0  0  0  0
  8 30  1  0  0  0  0
  9 10  2  0  0  0  0
  9 31  1  0  0  0  0
 10 32  1  0  0  0  0
 11 12  2  0  0  0  0
 11 16  1  0  0  0  0
 12 13  1  0  0  0  0
 12 17  1  0  0  0  0
 13 14  2  0  0  0  0
 13 20  1  0  0  0  0
 14 15  1  0  0  0  0
 14 33  1  0  0  0  0
 15 16  2  0  0  0  0
 15 34  1  0  0  0  0
 16 24  1  0  0  0  0
 17 18  2  0  0  0  0
 17 35  1  0  0  0  0
 18 19  1  0  0  0  0
 18 36  1  0  0  0  0
 19 20  2  0  0  0  0
 19 37  1  0  0  0  0
 20 38  1  0  0  0  0
 21 22  2  0  0  0  0
 21 23  1  0  0  0  0
 23 39  1  0  0  0  0
 24 25  2  0  0  0  0
 24 26  1  0  0  0  0
 26 40  1  0  0  0  0
M  END
$$$$
