Title Card Required
 OpenBabel03192317413D

 58 61  0  0  0  0  0  0  0  0999 V2000
   -0.4294   -0.5531   -1.4817 C   0  0  0  0  0  0  0  0  0  0  0  0
    0.6970    0.2604   -2.1204 C   0  0  0  0  0  0  0  0  0  0  0  0
    2.4223    0.2172   -1.3812 P   0  0  2  0  0  0  0  0  0  0  0  0
    2.3706   -1.2750   -0.2830 C   0  0  0  0  0  0  0  0  0  0  0  0
    2.4702   -2.5450   -0.8938 C   0  0  0  0  0  0  0  0  0  0  0  0
    2.5371   -3.5855    1.3075 C   0  0  0  0  0  0  0  0  0  0  0  0
    2.3371   -1.1908    1.1154 C   0  0  0  0  0  0  0  0  0  0  0  0
    2.5468   -3.6825   -0.0817 C   0  0  0  0  0  0  0  0  0  0  0  0
    2.4283   -2.3334    1.9078 C   0  0  0  0  0  0  0  0  0  0  0  0
    2.4899   -2.6921   -2.3936 C   0  0  0  0  0  0  0  0  0  0  0  0
    2.4736    1.5981   -0.1665 C   0  0  0  0  0  0  0  0  0  0  0  0
    3.6627    1.7270    0.5705 C   0  0  0  0  0  0  0  0  0  0  0  0
    3.8336    2.7651    1.4805 C   0  0  0  0  0  0  0  0  0  0  0  0
    2.8258    3.7162    1.6541 C   0  0  0  0  0  0  0  0  0  0  0  0
    1.6552    3.6177    0.9072 C   0  0  0  0  0  0  0  0  0  0  0  0
    1.4810    2.5682    0.0022 C   0  0  0  0  0  0  0  0  0  0  0  0
   -0.9856   -0.0183    0.2193 P   0  0  2  0  0  0  0  0  0  0  0  0
   -2.4708   -1.1258    0.3688 C   0  0  0  0  0  0  0  0  0  0  0  0
   -2.2772   -2.5040    0.6082 C   0  0  0  0  0  0  0  0  0  0  0  0
   -4.6939   -2.8144    0.7036 C   0  0  0  0  0  0  0  0  0  0  0  0
   -3.7780   -0.6213    0.3112 C   0  0  0  0  0  0  0  0  0  0  0  0
   -3.4003   -3.3240    0.7688 C   0  0  0  0  0  0  0  0  0  0  0  0
   -4.8823   -1.4540    0.4756 C   0  0  0  0  0  0  0  0  0  0  0  0
   -0.9063   -3.1287    0.6764 C   0  0  0  0  0  0  0  0  0  0  0  0
   -1.7929    1.6032   -0.1395 C   0  0  0  0  0  0  0  0  0  0  0  0
   -1.9184    2.4951    0.9343 C   0  0  0  0  0  0  0  0  0  0  0  0
   -2.4903    3.7541    0.7561 C   0  0  0  0  0  0  0  0  0  0  0  0
   -2.9293    4.1475   -0.5080 C   0  0  0  0  0  0  0  0  0  0  0  0
   -2.8049    3.2722   -1.5863 C   0  0  0  0  0  0  0  0  0  0  0  0
   -2.2461    2.0071   -1.4019 C   0  0  0  0  0  0  0  0  0  0  0  0
   -0.0984   -1.5946   -1.3496 H   0  0  0  0  0  0  0  0  0  0  0  0
   -1.2979   -0.5925   -2.1582 H   0  0  0  0  0  0  0  0  0  0  0  0
    0.8335   -0.0935   -3.1545 H   0  0  0  0  0  0  0  0  0  0  0  0
    0.4246    1.3232   -2.2200 H   0  0  0  0  0  0  0  0  0  0  0  0
    2.6086   -4.4871    1.9182 H   0  0  0  0  0  0  0  0  0  0  0  0
    2.2263   -0.2172    1.5943 H   0  0  0  0  0  0  0  0  0  0  0  0
    2.6284   -4.6636   -0.5556 H   0  0  0  0  0  0  0  0  0  0  0  0
    2.4026   -2.2414    2.9947 H   0  0  0  0  0  0  0  0  0  0  0  0
    2.7299   -3.7227   -2.6851 H   0  0  0  0  0  0  0  0  0  0  0  0
    1.5114   -2.4398   -2.8347 H   0  0  0  0  0  0  0  0  0  0  0  0
    3.2312   -2.0155   -2.8461 H   0  0  0  0  0  0  0  0  0  0  0  0
    4.4619    0.9931    0.4332 H   0  0  0  0  0  0  0  0  0  0  0  0
    4.7609    2.8373    2.0513 H   0  0  0  0  0  0  0  0  0  0  0  0
    2.9590    4.5334    2.3645 H   0  0  0  0  0  0  0  0  0  0  0  0
    0.8606    4.3571    1.0253 H   0  0  0  0  0  0  0  0  0  0  0  0
    0.5520    2.5242   -0.5663 H   0  0  0  0  0  0  0  0  0  0  0  0
   -5.5500   -3.4779    0.8363 H   0  0  0  0  0  0  0  0  0  0  0  0
   -3.9421    0.4432    0.1386 H   0  0  0  0  0  0  0  0  0  0  0  0
   -3.2475   -4.3898    0.9556 H   0  0  0  0  0  0  0  0  0  0  0  0
   -5.8888   -1.0354    0.4267 H   0  0  0  0  0  0  0  0  0  0  0  0
   -0.8950   -3.9684    1.3849 H   0  0  0  0  0  0  0  0  0  0  0  0
   -0.6020   -3.5304   -0.3041 H   0  0  0  0  0  0  0  0  0  0  0  0
   -0.1334   -2.4121    0.9901 H   0  0  0  0  0  0  0  0  0  0  0  0
   -1.5497    2.1979    1.9196 H   0  0  0  0  0  0  0  0  0  0  0  0
   -2.5842    4.4341    1.6045 H   0  0  0  0  0  0  0  0  0  0  0  0
   -3.3673    5.1364   -0.6533 H   0  0  0  0  0  0  0  0  0  0  0  0
   -3.1479    3.5740   -2.5774 H   0  0  0  0  0  0  0  0  0  0  0  0
   -2.1702    1.3310   -2.2559 H   0  0  0  0  0  0  0  0  0  0  0  0
  1  2  1  0  0  0  0
  1 31  1  0  0  0  0
  1 32  1  0  0  0  0
  2 33  1  0  0  0  0
  2 34  1  0  0  0  0
  3  2  1  1  0  0  0
  3  4  1  0  0  0  0
  3 11  1  0  0  0  0
  4  5  2  0  0  0  0
  4  7  1  0  0  0  0
  5  8  1  0  0  0  0
  5 10  1  0  0  0  0
  6  8  2  0  0  0  0
  6  9  1  0  0  0  0
  6 35  1  0  0  0  0
  7  9  2  0  0  0  0
  7 36  1  0  0  0  0
  8 37  1  0  0  0  0
  9 38  1  0  0  0  0
 10 39  1  0  0  0  0
 10 40  1  0  0  0  0
 10 41  1  0  0  0  0
 11 12  2  0  0  0  0
 11 16  1  0  0  0  0
 12 13  1  0  0  0  0
 12 42  1  0  0  0  0
 13 14  2  0  0  0  0
 13 43  1  0  0  0  0
 14 15  1  0  0  0  0
 14 44  1  0  0  0  0
 15 16  2  0  0  0  0
 15 45  1  0  0  0  0
 16 46  1  0  0  0  0
 17  1  1  6  0  0  0
 17 18  1  0  0  0  0
 17 25  1  0  0  0  0
 18 19  2  0  0  0  0
 18 21  1  0  0  0  0
 19 22  1  0  0  0  0
 19 24  1  0  0  0  0
 20 22  2  0  0  0  0
 20 23  1  0  0  0  0
 20 47  1  0  0  0  0
 21 23  2  0  0  0  0
 21 48  1  0  0  0  0
 22 49  1  0  0  0  0
 23 50  1  0  0  0  0
 24 51  1  0  0  0  0
 24 52  1  0  0  0  0
 24 53  1  0  0  0  0
 25 26  2  0  0  0  0
 25 30  1  0  0  0  0
 26 27  1  0  0  0  0
 26 54  1  0  0  0  0
 27 28  2  0  0  0  0
 27 55  1  0  0  0  0
 28 29  1  0  0  0  0
 28 56  1  0  0  0  0
 29 30  2  0  0  0  0
 29 57  1  0  0  0  0
 30 58  1  0  0  0  0
M  END
$$$$
