Title Card Required
 OpenBabel03192317523D

 58 60  0  0  1  0  0  0  0  0999 V2000
   -0.5591   -0.4562    0.2966 N   0  0  0  0  0  0  0  0  0  0  0  0
    0.2294   -1.4462   -0.2369 C   0  0  0  0  0  0  0  0  0  0  0  0
   -0.3111   -2.7069   -1.1818 S   0  0  0  0  0  0  0  0  0  0  0  0
    1.5485   -1.3122    0.0490 N   0  0  0  0  0  0  0  0  0  0  0  0
    2.1638   -0.2750    0.8523 C   0  0  1  0  0  0  0  0  0  0  0  0
    3.6126   -0.7469    1.1979 C   0  0  1  0  0  0  0  0  0  0  0  0
    4.4369   -0.8329   -0.0721 C   0  0  0  0  0  0  0  0  0  0  0  0
    4.9488    0.3231   -0.6783 C   0  0  0  0  0  0  0  0  0  0  0  0
    5.6613    0.2352   -1.8701 C   0  0  0  0  0  0  0  0  0  0  0  0
    5.8672   -1.0048   -2.4796 C   0  0  0  0  0  0  0  0  0  0  0  0
    5.3680   -2.1585   -1.8823 C   0  0  0  0  0  0  0  0  0  0  0  0
    4.6634   -2.0706   -0.6797 C   0  0  0  0  0  0  0  0  0  0  0  0
    2.1124    1.0987    0.1952 C   0  0  0  0  0  0  0  0  0  0  0  0
    1.9049    1.2309   -1.1821 C   0  0  0  0  0  0  0  0  0  0  0  0
    1.8821    2.4920   -1.7758 C   0  0  0  0  0  0  0  0  0  0  0  0
    2.0657    3.6356   -1.0002 C   0  0  0  0  0  0  0  0  0  0  0  0
    2.2658    3.5125    0.3745 C   0  0  0  0  0  0  0  0  0  0  0  0
    2.2839    2.2521    0.9693 C   0  0  0  0  0  0  0  0  0  0  0  0
    4.2300    0.0986    2.2107 N   0  0  0  0  0  0  0  0  0  0  0  0
    3.5209    0.0623    3.4777 C   0  0  0  0  0  0  0  0  0  0  0  0
    5.6246   -0.2496    2.4417 C   0  0  0  0  0  0  0  0  0  0  0  0
   -1.9477   -0.2938    0.1668 C   0  0  0  0  0  0  0  0  0  0  0  0
   -2.8491   -1.3669    0.2443 C   0  0  0  0  0  0  0  0  0  0  0  0
   -4.2110   -1.1170    0.1562 C   0  0  0  0  0  0  0  0  0  0  0  0
   -4.7133    0.1776    0.0011 C   0  0  0  0  0  0  0  0  0  0  0  0
   -3.8132    1.2307   -0.0604 C   0  0  0  0  0  0  0  0  0  0  0  0
   -2.4385    1.0033    0.0142 C   0  0  0  0  0  0  0  0  0  0  0  0
   -4.2911    2.6493   -0.2228 C   0  0  0  0  0  0  0  0  0  0  0  0
   -5.6186    2.7249   -0.2881 F   0  0  0  0  0  0  0  0  0  0  0  0
   -3.8914    3.4132    0.7979 F   0  0  0  0  0  0  0  0  0  0  0  0
   -3.7977    3.2039   -1.3325 F   0  0  0  0  0  0  0  0  0  0  0  0
   -5.2002   -2.2495    0.2593 C   0  0  0  0  0  0  0  0  0  0  0  0
   -4.6038   -3.4368    0.3102 F   0  0  0  0  0  0  0  0  0  0  0  0
   -5.9541   -2.1291    1.3558 F   0  0  0  0  0  0  0  0  0  0  0  0
   -6.0343   -2.2561   -0.7828 F   0  0  0  0  0  0  0  0  0  0  0  0
   -0.0762    0.3979    0.5595 H   0  0  0  0  0  0  0  0  0  0  0  0
    2.1429   -1.9695   -0.4457 H   0  0  0  0  0  0  0  0  0  0  0  0
    1.6050   -0.2247    1.8003 H   0  0  0  0  0  0  0  0  0  0  0  0
    3.4902   -1.7825    1.5909 H   0  0  0  0  0  0  0  0  0  0  0  0
    4.7921    1.2906   -0.1964 H   0  0  0  0  0  0  0  0  0  0  0  0
    6.0580    1.1417   -2.3298 H   0  0  0  0  0  0  0  0  0  0  0  0
    6.4225   -1.0687   -3.4165 H   0  0  0  0  0  0  0  0  0  0  0  0
    5.5305   -3.1328   -2.3453 H   0  0  0  0  0  0  0  0  0  0  0  0
    4.2937   -2.9830   -0.2028 H   0  0  0  0  0  0  0  0  0  0  0  0
    1.7682    0.3382   -1.7966 H   0  0  0  0  0  0  0  0  0  0  0  0
    1.7205    2.5789   -2.8512 H   0  0  0  0  0  0  0  0  0  0  0  0
    2.0462    4.6225   -1.4647 H   0  0  0  0  0  0  0  0  0  0  0  0
    2.4053    4.4030    0.9892 H   0  0  0  0  0  0  0  0  0  0  0  0
    2.4551    2.1642    2.0427 H   0  0  0  0  0  0  0  0  0  0  0  0
    3.4292   -0.9690    3.8812 H   0  0  0  0  0  0  0  0  0  0  0  0
    4.0691    0.6657    4.2132 H   0  0  0  0  0  0  0  0  0  0  0  0
    2.5116    0.4862    3.4025 H   0  0  0  0  0  0  0  0  0  0  0  0
    5.7418   -1.2943    2.8014 H   0  0  0  0  0  0  0  0  0  0  0  0
    6.2198   -0.1348    1.5293 H   0  0  0  0  0  0  0  0  0  0  0  0
    6.0379    0.4225    3.2054 H   0  0  0  0  0  0  0  0  0  0  0  0
   -2.4806   -2.3826    0.3659 H   0  0  0  0  0  0  0  0  0  0  0  0
   -5.7863    0.3573   -0.0682 H   0  0  0  0  0  0  0  0  0  0  0  0
   -1.7424    1.8434   -0.0566 H   0  0  0  0  0  0  0  0  0  0  0  0
  1  2  1  0  0  0  0
  1 22  1  0  0  0  0
  1 36  1  0  0  0  0
  2  3  2  0  0  0  0
  2  4  1  0  0  0  0
  4  5  1  0  0  0  0
  4 37  1  0  0  0  0
  5  6  1  0  0  0  0
  5 13  1  0  0  0  0
  5 38  1  1  0  0  0
  6  7  1  0  0  0  0
  6 19  1  0  0  0  0
  6 39  1  1  0  0  0
  7  8  2  0  0  0  0
  7 12  1  0  0  0  0
  8  9  1  0  0  0  0
  8 40  1  0  0  0  0
  9 10  2  0  0  0  0
  9 41  1  0  0  0  0
 10 11  1  0  0  0  0
 10 42  1  0  0  0  0
 11 12  2  0  0  0  0
 11 43  1  0  0  0  0
 12 44  1  0  0  0  0
 13 14  2  0  0  0  0
 13 18  1  0  0  0  0
 14 15  1  0  0  0  0
 14 45  1  0  0  0  0
 15 16  2  0  0  0  0
 15 46  1  0  0  0  0
 16 17  1  0  0  0  0
 16 47  1  0  0  0  0
 17 18  2  0  0  0  0
 17 48  1  0  0  0  0
 18 49  1  0  0  0  0
 19 20  1  0  0  0  0
 19 21  1  0  0  0  0
 20 50  1  0  0  0  0
 20 51  1  0  0  0  0
 20 52  1  0  0  0  0
 21 53  1  0  0  0  0
 21 54  1  0  0  0  0
 21 55  1  0  0  0  0
 22 23  2  0  0  0  0
 22 27  1  0  0  0  0
 23 24  1  0  0  0  0
 23 56  1  0  0  0  0
 24 25  2  0  0  0  0
 24 32  1  0  0  0  0
 25 26  1  0  0  0  0
 25 57  1  0  0  0  0
 26 27  2  0  0  0  0
 26 28  1  0  0  0  0
 27 58  1  0  0  0  0
 28 29  1  0  0  0  0
 28 30  1  0  0  0  0
 28 31  1  0  0  0  0
 32 33  1  0  0  0  0
 32 34  1  0  0  0  0
 32 35  1  0  0  0  0
M  END
$$$$
