Title Card Required
 OpenBabel03192317503D

 50 52  0  0  1  0  0  0  0  0999 V2000
   -0.0443    1.2577    0.7654 C   0  0  0  0  0  0  0  0  0  0  0  0
    0.0808    1.5390    2.1483 O   0  0  0  0  0  0  0  0  0  0  0  0
   -1.1600    3.4743    0.6242 N   0  0  0  0  0  0  0  0  0  0  0  0
   -0.1182    2.6266    0.0631 C   0  0  1  0  0  0  0  0  0  0  0  0
    1.1869    3.4490    0.1582 C   0  0  0  0  0  0  0  0  0  0  0  0
    0.7099    4.9141    0.0809 C   0  0  0  0  0  0  0  0  0  0  0  0
   -0.8361    4.8164    0.1485 C   0  0  0  0  0  0  0  0  0  0  0  0
   -1.2800    0.3787    0.5335 C   0  0  0  0  0  0  0  0  0  0  0  0
   -2.4827    0.8718    0.0111 C   0  0  0  0  0  0  0  0  0  0  0  0
   -3.5755    0.0234   -0.1355 C   0  0  0  0  0  0  0  0  0  0  0  0
   -3.5074   -1.3187    0.2384 C   0  0  0  0  0  0  0  0  0  0  0  0
   -2.3169   -1.8038    0.7627 C   0  0  0  0  0  0  0  0  0  0  0  0
   -1.2097   -0.9660    0.9034 C   0  0  0  0  0  0  0  0  0  0  0  0
   -2.1799   -3.2482    1.1689 C   0  0  0  0  0  0  0  0  0  0  0  0
   -3.3273   -3.9109    1.0416 F   0  0  0  0  0  0  0  0  0  0  0  0
   -1.2648   -3.8732    0.4269 F   0  0  0  0  0  0  0  0  0  0  0  0
   -1.7873   -3.3542    2.4405 F   0  0  0  0  0  0  0  0  0  0  0  0
   -4.8817    0.5458   -0.6786 C   0  0  0  0  0  0  0  0  0  0  0  0
   -4.7665    1.7856   -1.1482 F   0  0  0  0  0  0  0  0  0  0  0  0
   -5.3320   -0.2267   -1.6693 F   0  0  0  0  0  0  0  0  0  0  0  0
   -5.8252    0.5568    0.2646 F   0  0  0  0  0  0  0  0  0  0  0  0
    1.2015    0.5319    0.2508 C   0  0  0  0  0  0  0  0  0  0  0  0
    1.2413    0.0527   -1.0654 C   0  0  0  0  0  0  0  0  0  0  0  0
    2.3855   -0.5663   -1.5493 C   0  0  0  0  0  0  0  0  0  0  0  0
    3.5089   -0.7342   -0.7349 C   0  0  0  0  0  0  0  0  0  0  0  0
    3.4621   -0.2616    0.5677 C   0  0  0  0  0  0  0  0  0  0  0  0
    2.3181    0.3730    1.0628 C   0  0  0  0  0  0  0  0  0  0  0  0
    4.6492   -0.4071    1.4842 C   0  0  0  0  0  0  0  0  0  0  0  0
    5.6104   -1.1499    0.9388 F   0  0  0  0  0  0  0  0  0  0  0  0
    5.1767    0.7809    1.7835 F   0  0  0  0  0  0  0  0  0  0  0  0
    4.2991   -0.9781    2.6383 F   0  0  0  0  0  0  0  0  0  0  0  0
    2.4512   -1.0603   -2.9718 C   0  0  0  0  0  0  0  0  0  0  0  0
    1.2613   -1.0185   -3.5683 F   0  0  0  0  0  0  0  0  0  0  0  0
    3.2931   -0.3209   -3.6970 F   0  0  0  0  0  0  0  0  0  0  0  0
    2.8923   -2.3175   -3.0270 F   0  0  0  0  0  0  0  0  0  0  0  0
   -0.2744    0.8003    2.6564 H   0  0  0  0  0  0  0  0  0  0  0  0
   -1.0649    3.4309    1.6394 H   0  0  0  0  0  0  0  0  0  0  0  0
   -0.3553    2.4425   -1.0012 H   0  0  0  0  0  0  0  0  0  0  0  0
    1.6617    3.2443    1.1292 H   0  0  0  0  0  0  0  0  0  0  0  0
    1.9081    3.1837   -0.6264 H   0  0  0  0  0  0  0  0  0  0  0  0
    1.1094    5.5001    0.9193 H   0  0  0  0  0  0  0  0  0  0  0  0
    1.0389    5.4082   -0.8429 H   0  0  0  0  0  0  0  0  0  0  0  0
   -1.2965    5.5735    0.7962 H   0  0  0  0  0  0  0  0  0  0  0  0
   -1.2668    4.9445   -0.8569 H   0  0  0  0  0  0  0  0  0  0  0  0
   -2.5683    1.9284   -0.2437 H   0  0  0  0  0  0  0  0  0  0  0  0
   -4.3689   -1.9773    0.1200 H   0  0  0  0  0  0  0  0  0  0  0  0
   -0.2746   -1.3813    1.2914 H   0  0  0  0  0  0  0  0  0  0  0  0
    0.3683    0.1482   -1.7148 H   0  0  0  0  0  0  0  0  0  0  0  0
    4.4010   -1.2350   -1.1132 H   0  0  0  0  0  0  0  0  0  0  0  0
    2.2947    0.7479    2.0871 H   0  0  0  0  0  0  0  0  0  0  0  0
  1  2  1  0  0  0  0
  1  4  1  0  0  0  0
  1  8  1  0  0  0  0
  1 22  1  0  0  0  0
  2 36  1  0  0  0  0
  3  4  1  0  0  0  0
  3  7  1  0  0  0  0
  3 37  1  0  0  0  0
  4  5  1  0  0  0  0
  4 38  1  6  0  0  0
  5  6  1  0  0  0  0
  5 39  1  0  0  0  0
  5 40  1  0  0  0  0
  6  7  1  0  0  0  0
  6 41  1  0  0  0  0
  6 42  1  0  0  0  0
  7 43  1  0  0  0  0
  7 44  1  0  0  0  0
  8  9  2  0  0  0  0
  8 13  1  0  0  0  0
  9 10  1  0  0  0  0
  9 45  1  0  0  0  0
 10 11  2  0  0  0  0
 10 18  1  0  0  0  0
 11 12  1  0  0  0  0
 11 46  1  0  0  0  0
 12 13  2  0  0  0  0
 12 14  1  0  0  0  0
 13 47  1  0  0  0  0
 14 15  1  0  0  0  0
 14 16  1  0  0  0  0
 14 17  1  0  0  0  0
 18 19  1  0  0  0  0
 18 20  1  0  0  0  0
 18 21  1  0  0  0  0
 22 23  2  0  0  0  0
 22 27  1  0  0  0  0
 23 24  1  0  0  0  0
 23 48  1  0  0  0  0
 24 25  2  0  0  0  0
 24 32  1  0  0  0  0
 25 26  1  0  0  0  0
 25 49  1  0  0  0  0
 26 27  2  0  0  0  0
 26 28  1  0  0  0  0
 27 50  1  0  0  0  0
 28 29  1  0  0  0  0
 28 30  1  0  0  0  0
 28 31  1  0  0  0  0
 32 33  1  0  0  0  0
 32 34  1  0  0  0  0
 32 35  1  0  0  0  0
M  END
$$$$
