Title Card Required
 OpenBabel03192317533D

 62 64  0  0  1  0  0  0  0  0999 V2000
    0.2467    0.2406   -2.9643 N   0  0  0  0  0  0  0  0  0  0  0  0
    0.1302   -0.9983   -2.2039 C   0  0  1  0  0  0  0  0  0  0  0  0
    1.2366   -1.9317   -2.7409 C   0  0  0  0  0  0  0  0  0  0  0  0
    1.4478   -1.4480   -4.1942 C   0  0  0  0  0  0  0  0  0  0  0  0
    0.5097   -0.2244   -4.3261 C   0  0  0  0  0  0  0  0  0  0  0  0
    0.1159   -0.8263   -0.6677 C   0  0  0  0  0  0  0  0  0  0  0  0
    0.1571   -2.1050   -0.0894 O   0  0  0  0  0  0  0  0  0  0  0  0
   -1.0026   -3.3368    0.0669 Si  0  0  0  0  0  0  0  0  0  0  0  0
   -1.0829   -3.7415    1.8906 C   0  0  0  0  0  0  0  0  0  0  0  0
   -2.7078   -2.8473   -0.5494 C   0  0  0  0  0  0  0  0  0  0  0  0
   -0.3671   -4.8042   -0.9077 C   0  0  0  0  0  0  0  0  0  0  0  0
    1.3609   -0.0680   -0.1986 C   0  0  0  0  0  0  0  0  0  0  0  0
    2.4619   -0.7660    0.3044 C   0  0  0  0  0  0  0  0  0  0  0  0
    3.6072   -0.0783    0.6971 C   0  0  0  0  0  0  0  0  0  0  0  0
    3.6784    1.3106    0.6065 C   0  0  0  0  0  0  0  0  0  0  0  0
    2.5777    2.0022    0.1146 C   0  0  0  0  0  0  0  0  0  0  0  0
    1.4234    1.3245   -0.2792 C   0  0  0  0  0  0  0  0  0  0  0  0
    2.5954    3.5045    0.0017 C   0  0  0  0  0  0  0  0  0  0  0  0
    3.7511    4.0210    0.4144 F   0  0  0  0  0  0  0  0  0  0  0  0
    2.4081    3.8904   -1.2629 F   0  0  0  0  0  0  0  0  0  0  0  0
    1.6212    4.0561    0.7249 F   0  0  0  0  0  0  0  0  0  0  0  0
    4.8097   -0.8488    1.1774 C   0  0  0  0  0  0  0  0  0  0  0  0
    4.4606   -1.9948    1.7601 F   0  0  0  0  0  0  0  0  0  0  0  0
    5.6234   -1.1545    0.1631 F   0  0  0  0  0  0  0  0  0  0  0  0
    5.5239   -0.1441    2.0551 F   0  0  0  0  0  0  0  0  0  0  0  0
   -1.1339   -0.0960   -0.1624 C   0  0  0  0  0  0  0  0  0  0  0  0
   -1.3649   -0.1220    1.2174 C   0  0  0  0  0  0  0  0  0  0  0  0
   -2.5245    0.4277    1.7485 C   0  0  0  0  0  0  0  0  0  0  0  0
   -3.4684    1.0358    0.9205 C   0  0  0  0  0  0  0  0  0  0  0  0
   -3.2201    1.0836   -0.4447 C   0  0  0  0  0  0  0  0  0  0  0  0
   -2.0612    0.5269   -0.9925 C   0  0  0  0  0  0  0  0  0  0  0  0
   -4.2234    1.6997   -1.3803 C   0  0  0  0  0  0  0  0  0  0  0  0
   -5.1186    2.4266   -0.7446 F   0  0  0  0  0  0  0  0  0  0  0  0
   -3.6447    2.4765   -2.2727 F   0  0  0  0  0  0  0  0  0  0  0  0
   -4.8845    0.7785   -2.0570 F   0  0  0  0  0  0  0  0  0  0  0  0
   -2.7870    0.3020    3.2258 C   0  0  0  0  0  0  0  0  0  0  0  0
   -1.6627    0.3907    3.9338 F   0  0  0  0  0  0  0  0  0  0  0  0
   -3.6232    1.2417    3.6611 F   0  0  0  0  0  0  0  0  0  0  0  0
   -3.3376   -0.8826    3.5149 F   0  0  0  0  0  0  0  0  0  0  0  0
    1.0702    0.7486   -2.6383 H   0  0  0  0  0  0  0  0  0  0  0  0
   -0.8508   -1.4401   -2.4634 H   0  0  0  0  0  0  0  0  0  0  0  0
    2.1543   -1.8029   -2.1483 H   0  0  0  0  0  0  0  0  0  0  0  0
    0.9537   -2.9890   -2.6714 H   0  0  0  0  0  0  0  0  0  0  0  0
    2.4938   -1.1543   -4.3578 H   0  0  0  0  0  0  0  0  0  0  0  0
    1.2125   -2.2246   -4.9341 H   0  0  0  0  0  0  0  0  0  0  0  0
    0.9211    0.5868   -4.9398 H   0  0  0  0  0  0  0  0  0  0  0  0
   -0.4484   -0.5253   -4.7781 H   0  0  0  0  0  0  0  0  0  0  0  0
   -1.5565   -2.9262    2.4579 H   0  0  0  0  0  0  0  0  0  0  0  0
   -1.6776   -4.6523    2.0580 H   0  0  0  0  0  0  0  0  0  0  0  0
   -0.0768   -3.9109    2.3017 H   0  0  0  0  0  0  0  0  0  0  0  0
   -2.7115   -2.4871   -1.5890 H   0  0  0  0  0  0  0  0  0  0  0  0
   -3.3463   -3.7448   -0.5103 H   0  0  0  0  0  0  0  0  0  0  0  0
   -3.1742   -2.0768    0.0825 H   0  0  0  0  0  0  0  0  0  0  0  0
   -0.4883   -4.6563   -1.9911 H   0  0  0  0  0  0  0  0  0  0  0  0
    0.6992   -4.9793   -0.7016 H   0  0  0  0  0  0  0  0  0  0  0  0
   -0.9216   -5.7139   -0.6311 H   0  0  0  0  0  0  0  0  0  0  0  0
    2.4046   -1.8504    0.3984 H   0  0  0  0  0  0  0  0  0  0  0  0
    4.5723    1.8468    0.9260 H   0  0  0  0  0  0  0  0  0  0  0  0
    0.5621    1.8915   -0.6433 H   0  0  0  0  0  0  0  0  0  0  0  0
   -0.6329   -0.5960    1.8762 H   0  0  0  0  0  0  0  0  0  0  0  0
   -4.3742    1.4755    1.3379 H   0  0  0  0  0  0  0  0  0  0  0  0
   -1.8685    0.6032   -2.0643 H   0  0  0  0  0  0  0  0  0  0  0  0
  1  2  1  0  0  0  0
  1  5  1  0  0  0  0
  1 40  1  0  0  0  0
  2  3  1  0  0  0  0
  2  6  1  0  0  0  0
  2 41  1  6  0  0  0
  3  4  1  0  0  0  0
  3 42  1  0  0  0  0
  3 43  1  0  0  0  0
  4  5  1  0  0  0  0
  4 44  1  0  0  0  0
  4 45  1  0  0  0  0
  5 46  1  0  0  0  0
  5 47  1  0  0  0  0
  6  7  1  0  0  0  0
  6 12  1  0  0  0  0
  6 26  1  0  0  0  0
  7  8  1  0  0  0  0
  8  9  1  0  0  0  0
  8 10  1  0  0  0  0
  8 11  1  0  0  0  0
  9 48  1  0  0  0  0
  9 49  1  0  0  0  0
  9 50  1  0  0  0  0
 10 51  1  0  0  0  0
 10 52  1  0  0  0  0
 10 53  1  0  0  0  0
 11 54  1  0  0  0  0
 11 55  1  0  0  0  0
 11 56  1  0  0  0  0
 12 13  2  0  0  0  0
 12 17  1  0  0  0  0
 13 14  1  0  0  0  0
 13 57  1  0  0  0  0
 14 15  2  0  0  0  0
 14 22  1  0  0  0  0
 15 16  1  0  0  0  0
 15 58  1  0  0  0  0
 16 17  2  0  0  0  0
 16 18  1  0  0  0  0
 17 59  1  0  0  0  0
 18 19  1  0  0  0  0
 18 20  1  0  0  0  0
 18 21  1  0  0  0  0
 22 23  1  0  0  0  0
 22 24  1  0  0  0  0
 22 25  1  0  0  0  0
 26 27  2  0  0  0  0
 26 31  1  0  0  0  0
 27 28  1  0  0  0  0
 27 60  1  0  0  0  0
 28 29  2  0  0  0  0
 28 36  1  0  0  0  0
 29 30  1  0  0  0  0
 29 61  1  0  0  0  0
 30 31  2  0  0  0  0
 30 32  1  0  0  0  0
 31 62  1  0  0  0  0
 32 33  1  0  0  0  0
 32 34  1  0  0  0  0
 32 35  1  0  0  0  0
 36 37  1  0  0  0  0
 36 38  1  0  0  0  0
 36 39  1  0  0  0  0
M  END
$$$$
