Title Card Required
 OpenBabel03192317523D

 68 75  0  0  0  0  0  0  0  0999 V2000
    1.8088   -2.4653   -0.9982 C   0  0  0  0  0  0  0  0  0  0  0  0
    0.6251   -1.6707   -0.9987 C   0  0  0  0  0  0  0  0  0  0  0  0
    0.6054   -0.4333   -0.2862 C   0  0  0  0  0  0  0  0  0  0  0  0
    1.7366   -0.0212    0.3968 C   0  0  0  0  0  0  0  0  0  0  0  0
    2.9300   -0.8110    0.3996 C   0  0  0  0  0  0  0  0  0  0  0  0
    2.9447   -2.0025   -0.2880 C   0  0  0  0  0  0  0  0  0  0  0  0
    1.8295   -3.6950   -1.7115 C   0  0  0  0  0  0  0  0  0  0  0  0
    0.7259   -4.1235   -2.4053 C   0  0  0  0  0  0  0  0  0  0  0  0
   -0.4499   -3.3317   -2.4147 C   0  0  0  0  0  0  0  0  0  0  0  0
   -0.5004   -2.1411   -1.7326 C   0  0  0  0  0  0  0  0  0  0  0  0
   -0.6054    0.4334   -0.2859 C   0  0  0  0  0  0  0  0  0  0  0  0
   -0.6251    1.6712   -0.9977 C   0  0  0  0  0  0  0  0  0  0  0  0
   -1.8088    2.4658   -0.9967 C   0  0  0  0  0  0  0  0  0  0  0  0
   -2.9447    2.0026   -0.2867 C   0  0  0  0  0  0  0  0  0  0  0  0
   -2.9300    0.8107    0.4001 C   0  0  0  0  0  0  0  0  0  0  0  0
   -1.7366    0.0209    0.3968 C   0  0  0  0  0  0  0  0  0  0  0  0
    0.5004    2.1420   -1.7314 C   0  0  0  0  0  0  0  0  0  0  0  0
    0.4498    3.3330   -2.4128 C   0  0  0  0  0  0  0  0  0  0  0  0
   -0.7260    4.1249   -2.4029 C   0  0  0  0  0  0  0  0  0  0  0  0
   -1.8295    3.6960   -1.7093 C   0  0  0  0  0  0  0  0  0  0  0  0
    1.6918    1.1612    1.0472 O   0  0  0  0  0  0  0  0  0  0  0  0
   -1.6917   -1.1619    1.0466 O   0  0  0  0  0  0  0  0  0  0  0  0
    4.1201   -0.3353    1.1619 C   0  0  0  0  0  0  0  0  0  0  0  0
   -4.1200    0.3345    1.1622 C   0  0  0  0  0  0  0  0  0  0  0  0
    4.0386   -0.2094    2.5361 C   0  0  0  0  0  0  0  0  0  0  0  0
    5.1473    0.2177    3.3054 C   0  0  0  0  0  0  0  0  0  0  0  0
    6.3368    0.5149    2.6903 C   0  0  0  0  0  0  0  0  0  0  0  0
    5.3469   -0.0008    0.4955 C   0  0  0  0  0  0  0  0  0  0  0  0
   -4.0385    0.2075    2.5362 C   0  0  0  0  0  0  0  0  0  0  0  0
   -5.1472   -0.2202    3.3053 C   0  0  0  0  0  0  0  0  0  0  0  0
   -6.3367   -0.5168    2.6900 C   0  0  0  0  0  0  0  0  0  0  0  0
   -6.4652   -0.4178    1.2779 C   0  0  0  0  0  0  0  0  0  0  0  0
   -5.3469    0.0007    0.4955 C   0  0  0  0  0  0  0  0  0  0  0  0
    6.4652    0.4170    1.2781 C   0  0  0  0  0  0  0  0  0  0  0  0
    7.6868    0.7403    0.6265 C   0  0  0  0  0  0  0  0  0  0  0  0
    7.7971    0.6681   -0.7396 C   0  0  0  0  0  0  0  0  0  0  0  0
    6.6824    0.2752   -1.5198 C   0  0  0  0  0  0  0  0  0  0  0  0
    5.4899   -0.0512   -0.9201 C   0  0  0  0  0  0  0  0  0  0  0  0
   -7.6869   -0.7404    0.6261 C   0  0  0  0  0  0  0  0  0  0  0  0
   -7.7972   -0.6671   -0.7400 C   0  0  0  0  0  0  0  0  0  0  0  0
   -6.6826   -0.2736   -1.5199 C   0  0  0  0  0  0  0  0  0  0  0  0
   -5.4900    0.0522   -0.9201 C   0  0  0  0  0  0  0  0  0  0  0  0
    3.8534   -2.6100   -0.2843 H   0  0  0  0  0  0  0  0  0  0  0  0
    2.7445   -4.2914   -1.6975 H   0  0  0  0  0  0  0  0  0  0  0  0
    0.7501   -5.0672   -2.9519 H   0  0  0  0  0  0  0  0  0  0  0  0
   -1.3238   -3.6721   -2.9726 H   0  0  0  0  0  0  0  0  0  0  0  0
   -1.4083   -1.5370   -1.7478 H   0  0  0  0  0  0  0  0  0  0  0  0
   -3.8534    2.6101   -0.2826 H   0  0  0  0  0  0  0  0  0  0  0  0
    1.4082    1.5379   -1.7470 H   0  0  0  0  0  0  0  0  0  0  0  0
    1.3237    3.6737   -2.9706 H   0  0  0  0  0  0  0  0  0  0  0  0
   -0.7502    5.0689   -2.9489 H   0  0  0  0  0  0  0  0  0  0  0  0
   -2.7445    4.2923   -1.6949 H   0  0  0  0  0  0  0  0  0  0  0  0
    2.5626    1.3637    1.4142 H   0  0  0  0  0  0  0  0  0  0  0  0
   -2.5625   -1.3646    1.4134 H   0  0  0  0  0  0  0  0  0  0  0  0
    3.1017   -0.4659    3.0362 H   0  0  0  0  0  0  0  0  0  0  0  0
    5.0510    0.2957    4.3892 H   0  0  0  0  0  0  0  0  0  0  0  0
    7.2017    0.8352    3.2748 H   0  0  0  0  0  0  0  0  0  0  0  0
   -3.1015    0.4635    3.0365 H   0  0  0  0  0  0  0  0  0  0  0  0
   -5.0508   -0.2989    4.3890 H   0  0  0  0  0  0  0  0  0  0  0  0
   -7.2016   -0.8375    3.2742 H   0  0  0  0  0  0  0  0  0  0  0  0
    8.5369    1.0515    1.2373 H   0  0  0  0  0  0  0  0  0  0  0  0
    8.7392    0.9193   -1.2290 H   0  0  0  0  0  0  0  0  0  0  0  0
    6.7712    0.2352   -2.6064 H   0  0  0  0  0  0  0  0  0  0  0  0
    4.6345   -0.3467   -1.5283 H   0  0  0  0  0  0  0  0  0  0  0  0
   -8.5369   -1.0520    1.2366 H   0  0  0  0  0  0  0  0  0  0  0  0
   -8.7394   -0.9178   -1.2295 H   0  0  0  0  0  0  0  0  0  0  0  0
   -6.7714   -0.2327   -2.6064 H   0  0  0  0  0  0  0  0  0  0  0  0
   -4.6346    0.3482   -1.5280 H   0  0  0  0  0  0  0  0  0  0  0  0
  1  2  1  0  0  0  0
  1  6  2  0  0  0  0
  1  7  1  0  0  0  0
  2  3  2  0  0  0  0
  2 10  1  0  0  0  0
  3  4  1  0  0  0  0
  3 11  1  0  0  0  0
  4  5  2  0  0  0  0
  4 21  1  0  0  0  0
  5  6  1  0  0  0  0
  5 23  1  0  0  0  0
  6 43  1  0  0  0  0
  7  8  2  0  0  0  0
  7 44  1  0  0  0  0
  8  9  1  0  0  0  0
  8 45  1  0  0  0  0
  9 10  2  0  0  0  0
  9 46  1  0  0  0  0
 10 47  1  0  0  0  0
 11 12  2  0  0  0  0
 11 16  1  0  0  0  0
 12 13  1  0  0  0  0
 12 17  1  0  0  0  0
 13 14  2  0  0  0  0
 13 20  1  0  0  0  0
 14 15  1  0  0  0  0
 14 48  1  0  0  0  0
 15 16  2  0  0  0  0
 15 24  1  0  0  0  0
 16 22  1  0  0  0  0
 17 18  2  0  0  0  0
 17 49  1  0  0  0  0
 18 19  1  0  0  0  0
 18 50  1  0  0  0  0
 19 20  2  0  0  0  0
 19 51  1  0  0  0  0
 20 52  1  0  0  0  0
 21 53  1  0  0  0  0
 22 54  1  0  0  0  0
 23 25  2  0  0  0  0
 23 28  1  0  0  0  0
 24 29  2  0  0  0  0
 24 33  1  0  0  0  0
 25 26  1  0  0  0  0
 25 55  1  0  0  0  0
 26 27  2  0  0  0  0
 26 56  1  0  0  0  0
 27 34  1  0  0  0  0
 27 57  1  0  0  0  0
 28 34  2  0  0  0  0
 28 38  1  0  0  0  0
 29 30  1  0  0  0  0
 29 58  1  0  0  0  0
 30 31  2  0  0  0  0
 30 59  1  0  0  0  0
 31 32  1  0  0  0  0
 31 60  1  0  0  0  0
 32 33  2  0  0  0  0
 32 39  1  0  0  0  0
 33 42  1  0  0  0  0
 34 35  1  0  0  0  0
 35 36  2  0  0  0  0
 35 61  1  0  0  0  0
 36 37  1  0  0  0  0
 36 62  1  0  0  0  0
 37 38  2  0  0  0  0
 37 63  1  0  0  0  0
 38 64  1  0  0  0  0
 39 40  2  0  0  0  0
 39 65  1  0  0  0  0
 40 41  1  0  0  0  0
 40 66  1  0  0  0  0
 41 42  2  0  0  0  0
 41 67  1  0  0  0  0
 42 68  1  0  0  0  0
M  END
$$$$
