Title Card Required
 OpenBabel03192317573D

127132  0  0  1  0  0  0  0  0999 V2000
   -0.5559    1.2066   -3.6250 C   0  0  0  0  0  0  0  0  0  0  0  0
   -1.4677    1.7266   -2.5142 C   0  0  1  0  0  0  0  0  0  0  0  0
    0.9148    1.5915   -3.5575 C   0  0  1  0  0  0  0  0  0  0  0  0
   -1.3496    0.8557   -1.3891 O   0  0  0  0  0  0  0  0  0  0  0  0
    1.4887    1.0139   -2.3783 O   0  0  0  0  0  0  0  0  0  0  0  0
    2.6612    1.8388   -1.5871 P   0  0  0  0  0  0  0  0  0  0  0  0
   -2.4166    0.9933   -0.1474 P   0  0  0  0  0  0  0  0  0  0  0  0
   -1.1784    3.1688   -2.1203 C   0  0  0  0  0  0  0  0  0  0  0  0
    1.6674    1.1340   -4.7976 C   0  0  0  0  0  0  0  0  0  0  0  0
    2.0454    1.5369   -0.0734 O   0  0  0  0  0  0  0  0  0  0  0  0
    2.8049    1.9289    1.0101 C   0  0  0  0  0  0  0  0  0  0  0  0
    3.9275    1.1578    1.3288 C   0  0  0  0  0  0  0  0  0  0  0  0
    4.2316   -0.1229    0.6308 C   0  0  0  0  0  0  0  0  0  0  0  0
    4.2322   -0.2826   -0.7693 C   0  0  0  0  0  0  0  0  0  0  0  0
    3.9401    0.7955   -1.5763 O   0  0  0  0  0  0  0  0  0  0  0  0
   -3.6939    0.2498   -0.9465 O   0  0  0  0  0  0  0  0  0  0  0  0
   -4.7879   -0.0102   -0.1482 C   0  0  0  0  0  0  0  0  0  0  0  0
   -4.6769   -1.0804    0.7588 C   0  0  0  0  0  0  0  0  0  0  0  0
   -3.5106   -2.0098    0.7352 C   0  0  0  0  0  0  0  0  0  0  0  0
   -2.1654   -1.5880    0.7335 C   0  0  0  0  0  0  0  0  0  0  0  0
   -1.8908   -0.2364    0.7941 O   0  0  0  0  0  0  0  0  0  0  0  0
    2.4158    3.0346    1.8044 C   0  0  0  0  0  0  0  0  0  0  0  0
    3.2333    3.3585    2.8822 C   0  0  0  0  0  0  0  0  0  0  0  0
    4.3949    2.6361    3.1847 C   0  0  0  0  0  0  0  0  0  0  0  0
    4.7350    1.5291    2.4172 C   0  0  0  0  0  0  0  0  0  0  0  0
    4.5515   -1.2177    1.4357 C   0  0  0  0  0  0  0  0  0  0  0  0
    4.8939   -2.4426    0.8739 C   0  0  0  0  0  0  0  0  0  0  0  0
    4.9503   -2.5656   -0.5140 C   0  0  0  0  0  0  0  0  0  0  0  0
    4.6312   -1.4970   -1.3627 C   0  0  0  0  0  0  0  0  0  0  0  0
   -3.7939   -3.3753    0.7512 C   0  0  0  0  0  0  0  0  0  0  0  0
   -2.7662   -4.3119    0.7898 C   0  0  0  0  0  0  0  0  0  0  0  0
   -1.4429   -3.8751    0.8339 C   0  0  0  0  0  0  0  0  0  0  0  0
   -1.1069   -2.5123    0.8130 C   0  0  0  0  0  0  0  0  0  0  0  0
   -5.9690    0.7421   -0.2626 C   0  0  0  0  0  0  0  0  0  0  0  0
   -7.0173    0.4357    0.6176 C   0  0  0  0  0  0  0  0  0  0  0  0
   -6.9017   -0.5832    1.5666 C   0  0  0  0  0  0  0  0  0  0  0  0
   -5.7387   -1.3494    1.6202 C   0  0  0  0  0  0  0  0  0  0  0  0
   -6.1466    1.8121   -1.3526 C   0  0  0  0  0  0  0  0  0  0  0  0
   -5.9797    1.1533   -2.7335 C   0  0  0  0  0  0  0  0  0  0  0  0
   -7.5433    2.4437   -1.2995 C   0  0  0  0  0  0  0  0  0  0  0  0
   -5.1247    2.9506   -1.1934 C   0  0  0  0  0  0  0  0  0  0  0  0
   -7.8721   -0.9034    2.4553 O   0  0  0  0  0  0  0  0  0  0  0  0
   -9.0784   -0.1920    2.4145 C   0  0  0  0  0  0  0  0  0  0  0  0
   -3.1379   -5.6161    0.7903 O   0  0  0  0  0  0  0  0  0  0  0  0
   -2.1361   -6.5942    0.8111 C   0  0  0  0  0  0  0  0  0  0  0  0
    0.3734   -2.0916    0.8529 C   0  0  0  0  0  0  0  0  0  0  0  0
    0.6493   -1.0567    1.9592 C   0  0  0  0  0  0  0  0  0  0  0  0
    1.2886   -3.2929    1.1306 C   0  0  0  0  0  0  0  0  0  0  0  0
    0.7614   -1.5104   -0.5143 C   0  0  0  0  0  0  0  0  0  0  0  0
    1.1474    3.8500    1.5142 C   0  0  0  0  0  0  0  0  0  0  0  0
   -0.0750    2.9243    1.3894 C   0  0  0  0  0  0  0  0  0  0  0  0
    0.8471    4.8451    2.6422 C   0  0  0  0  0  0  0  0  0  0  0  0
    1.3478    4.6677    0.2282 C   0  0  0  0  0  0  0  0  0  0  0  0
    5.1098    3.0810    4.2434 O   0  0  0  0  0  0  0  0  0  0  0  0
    6.2779    2.3878    4.5916 C   0  0  0  0  0  0  0  0  0  0  0  0
    4.6957   -1.6904   -2.8866 C   0  0  0  0  0  0  0  0  0  0  0  0
    5.5545   -0.5995   -3.5518 C   0  0  0  0  0  0  0  0  0  0  0  0
    5.3256   -3.0372   -3.2669 C   0  0  0  0  0  0  0  0  0  0  0  0
    3.2629   -1.6765   -3.4382 C   0  0  0  0  0  0  0  0  0  0  0  0
    5.1374   -3.4559    1.7391 O   0  0  0  0  0  0  0  0  0  0  0  0
    5.4117   -4.7270    1.2161 C   0  0  0  0  0  0  0  0  0  0  0  0
   -0.9443    1.5848   -4.5844 H   0  0  0  0  0  0  0  0  0  0  0  0
   -0.6388    0.1089   -3.6465 H   0  0  0  0  0  0  0  0  0  0  0  0
   -2.5037    1.6481   -2.8924 H   0  0  0  0  0  0  0  0  0  0  0  0
    1.0026    2.6910   -3.4854 H   0  0  0  0  0  0  0  0  0  0  0  0
   -1.1839    3.8224   -3.0053 H   0  0  0  0  0  0  0  0  0  0  0  0
   -1.9256    3.5485   -1.4083 H   0  0  0  0  0  0  0  0  0  0  0  0
   -0.1945    3.2338   -1.6346 H   0  0  0  0  0  0  0  0  0  0  0  0
    1.2958    1.6664   -5.6845 H   0  0  0  0  0  0  0  0  0  0  0  0
    2.7437    1.3387   -4.6967 H   0  0  0  0  0  0  0  0  0  0  0  0
    1.5347    0.0549   -4.9546 H   0  0  0  0  0  0  0  0  0  0  0  0
    3.0018    4.1953    3.5374 H   0  0  0  0  0  0  0  0  0  0  0  0
    5.6201    0.9338    2.6342 H   0  0  0  0  0  0  0  0  0  0  0  0
    4.5089   -1.1379    2.5221 H   0  0  0  0  0  0  0  0  0  0  0  0
    5.2439   -3.5151   -0.9503 H   0  0  0  0  0  0  0  0  0  0  0  0
   -4.8242   -3.7295    0.7221 H   0  0  0  0  0  0  0  0  0  0  0  0
   -0.6463   -4.6102    0.8881 H   0  0  0  0  0  0  0  0  0  0  0  0
   -7.9395    1.0064    0.5615 H   0  0  0  0  0  0  0  0  0  0  0  0
   -5.6762   -2.1583    2.3482 H   0  0  0  0  0  0  0  0  0  0  0  0
   -6.7506    0.3837   -2.8874 H   0  0  0  0  0  0  0  0  0  0  0  0
   -6.0885    1.9114   -3.5252 H   0  0  0  0  0  0  0  0  0  0  0  0
   -4.9948    0.6789   -2.8314 H   0  0  0  0  0  0  0  0  0  0  0  0
   -7.7151    2.9755   -0.3517 H   0  0  0  0  0  0  0  0  0  0  0  0
   -7.6387    3.1750   -2.1149 H   0  0  0  0  0  0  0  0  0  0  0  0
   -8.3363    1.6933   -1.4300 H   0  0  0  0  0  0  0  0  0  0  0  0
   -5.1154    3.3371   -0.1634 H   0  0  0  0  0  0  0  0  0  0  0  0
   -4.1104    2.6214   -1.4467 H   0  0  0  0  0  0  0  0  0  0  0  0
   -5.3834    3.7781   -1.8720 H   0  0  0  0  0  0  0  0  0  0  0  0
   -8.9240    0.8824    2.6110 H   0  0  0  0  0  0  0  0  0  0  0  0
   -9.5841   -0.3062    1.4407 H   0  0  0  0  0  0  0  0  0  0  0  0
   -9.7180   -0.6099    3.1998 H   0  0  0  0  0  0  0  0  0  0  0  0
   -1.4719   -6.5161   -0.0664 H   0  0  0  0  0  0  0  0  0  0  0  0
   -1.5226   -6.5315    1.7260 H   0  0  0  0  0  0  0  0  0  0  0  0
   -2.6433   -7.5655    0.7890 H   0  0  0  0  0  0  0  0  0  0  0  0
    0.3421   -1.4441    2.9431 H   0  0  0  0  0  0  0  0  0  0  0  0
    1.7306   -0.8499    1.9913 H   0  0  0  0  0  0  0  0  0  0  0  0
    0.1310   -0.1101    1.7775 H   0  0  0  0  0  0  0  0  0  0  0  0
    1.2596   -4.0306    0.3142 H   0  0  0  0  0  0  0  0  0  0  0  0
    2.3244   -2.9360    1.2150 H   0  0  0  0  0  0  0  0  0  0  0  0
    1.0295   -3.7986    2.0735 H   0  0  0  0  0  0  0  0  0  0  0  0
    0.5633   -2.2434   -1.3129 H   0  0  0  0  0  0  0  0  0  0  0  0
    0.2156   -0.5884   -0.7439 H   0  0  0  0  0  0  0  0  0  0  0  0
    1.8370   -1.2740   -0.5229 H   0  0  0  0  0  0  0  0  0  0  0  0
   -0.2438    2.3796    2.3314 H   0  0  0  0  0  0  0  0  0  0  0  0
   -0.9751    3.5245    1.1827 H   0  0  0  0  0  0  0  0  0  0  0  0
    0.0438    2.1872    0.5857 H   0  0  0  0  0  0  0  0  0  0  0  0
    1.6359    5.6038    2.7475 H   0  0  0  0  0  0  0  0  0  0  0  0
   -0.0904    5.3719    2.4126 H   0  0  0  0  0  0  0  0  0  0  0  0
    0.7204    4.3352    3.6083 H   0  0  0  0  0  0  0  0  0  0  0  0
    2.1794    5.3777    0.3501 H   0  0  0  0  0  0  0  0  0  0  0  0
    1.5795    4.0370   -0.6389 H   0  0  0  0  0  0  0  0  0  0  0  0
    0.4349    5.2398   -0.0011 H   0  0  0  0  0  0  0  0  0  0  0  0
    6.0618    1.3406    4.8622 H   0  0  0  0  0  0  0  0  0  0  0  0
    7.0138    2.3980    3.7702 H   0  0  0  0  0  0  0  0  0  0  0  0
    6.7033    2.9017    5.4607 H   0  0  0  0  0  0  0  0  0  0  0  0
    6.5755   -0.6131   -3.1408 H   0  0  0  0  0  0  0  0  0  0  0  0
    5.6217   -0.7983   -4.6325 H   0  0  0  0  0  0  0  0  0  0  0  0
    5.1409    0.4031   -3.4061 H   0  0  0  0  0  0  0  0  0  0  0  0
    4.7261   -3.8902   -2.9178 H   0  0  0  0  0  0  0  0  0  0  0  0
    5.3813   -3.1055   -4.3629 H   0  0  0  0  0  0  0  0  0  0  0  0
    6.3474   -3.1379   -2.8711 H   0  0  0  0  0  0  0  0  0  0  0  0
    2.6980   -2.5363   -3.0469 H   0  0  0  0  0  0  0  0  0  0  0  0
    2.7241   -0.7686   -3.1463 H   0  0  0  0  0  0  0  0  0  0  0  0
    3.2797   -1.7450   -4.5381 H   0  0  0  0  0  0  0  0  0  0  0  0
    4.5804   -5.0931    0.5898 H   0  0  0  0  0  0  0  0  0  0  0  0
    6.3381   -4.7310    0.6174 H   0  0  0  0  0  0  0  0  0  0  0  0
    5.5381   -5.3995    2.0718 H   0  0  0  0  0  0  0  0  0  0  0  0
  1  2  1  0  0  0  0
  1  3  1  0  0  0  0
  1 62  1  0  0  0  0
  1 63  1  0  0  0  0
  2  4  1  0  0  0  0
  2  8  1  0  0  0  0
  2 64  1  6  0  0  0
  3  5  1  0  0  0  0
  3  9  1  0  0  0  0
  3 65  1  1  0  0  0
  4  7  1  0  0  0  0
  5  6  1  0  0  0  0
  6 10  1  0  0  0  0
  6 15  1  0  0  0  0
  7 16  1  0  0  0  0
  7 21  1  0  0  0  0
  8 66  1  0  0  0  0
  8 67  1  0  0  0  0
  8 68  1  0  0  0  0
  9 69  1  0  0  0  0
  9 70  1  0  0  0  0
  9 71  1  0  0  0  0
 10 11  1  0  0  0  0
 11 12  2  0  0  0  0
 11 22  1  0  0  0  0
 12 13  1  0  0  0  0
 12 25  1  0  0  0  0
 13 14  2  0  0  0  0
 13 26  1  0  0  0  0
 14 15  1  0  0  0  0
 14 29  1  0  0  0  0
 16 17  1  0  0  0  0
 17 18  2  0  0  0  0
 17 34  1  0  0  0  0
 18 19  1  0  0  0  0
 18 37  1  0  0  0  0
 19 20  2  0  0  0  0
 19 30  1  0  0  0  0
 20 21  1  0  0  0  0
 20 33  1  0  0  0  0
 22 23  2  0  0  0  0
 22 50  1  0  0  0  0
 23 24  1  0  0  0  0
 23 72  1  0  0  0  0
 24 25  2  0  0  0  0
 24 54  1  0  0  0  0
 25 73  1  0  0  0  0
 26 27  2  0  0  0  0
 26 74  1  0  0  0  0
 27 28  1  0  0  0  0
 27 60  1  0  0  0  0
 28 29  2  0  0  0  0
 28 75  1  0  0  0  0
 29 56  1  0  0  0  0
 30 31  2  0  0  0  0
 30 76  1  0  0  0  0
 31 32  1  0  0  0  0
 31 44  1  0  0  0  0
 32 33  2  0  0  0  0
 32 77  1  0  0  0  0
 33 46  1  0  0  0  0
 34 35  2  0  0  0  0
 34 38  1  0  0  0  0
 35 36  1  0  0  0  0
 35 78  1  0  0  0  0
 36 37  2  0  0  0  0
 36 42  1  0  0  0  0
 37 79  1  0  0  0  0
 38 39  1  0  0  0  0
 38 40  1  0  0  0  0
 38 41  1  0  0  0  0
 39 80  1  0  0  0  0
 39 81  1  0  0  0  0
 39 82  1  0  0  0  0
 40 83  1  0  0  0  0
 40 84  1  0  0  0  0
 40 85  1  0  0  0  0
 41 86  1  0  0  0  0
 41 87  1  0  0  0  0
 41 88  1  0  0  0  0
 42 43  1  0  0  0  0
 43 89  1  0  0  0  0
 43 90  1  0  0  0  0
 43 91  1  0  0  0  0
 44 45  1  0  0  0  0
 45 92  1  0  0  0  0
 45 93  1  0  0  0  0
 45 94  1  0  0  0  0
 46 47  1  0  0  0  0
 46 48  1  0  0  0  0
 46 49  1  0  0  0  0
 47 95  1  0  0  0  0
 47 96  1  0  0  0  0
 47 97  1  0  0  0  0
 48 98  1  0  0  0  0
 48 99  1  0  0  0  0
 48100  1  0  0  0  0
 49101  1  0  0  0  0
 49102  1  0  0  0  0
 49103  1  0  0  0  0
 50 51  1  0  0  0  0
 50 52  1  0  0  0  0
 50 53  1  0  0  0  0
 51104  1  0  0  0  0
 51105  1  0  0  0  0
 51106  1  0  0  0  0
 52107  1  0  0  0  0
 52108  1  0  0  0  0
 52109  1  0  0  0  0
 53110  1  0  0  0  0
 53111  1  0  0  0  0
 53112  1  0  0  0  0
 54 55  1  0  0  0  0
 55113  1  0  0  0  0
 55114  1  0  0  0  0
 55115  1  0  0  0  0
 56 57  1  0  0  0  0
 56 58  1  0  0  0  0
 56 59  1  0  0  0  0
 57116  1  0  0  0  0
 57117  1  0  0  0  0
 57118  1  0  0  0  0
 58119  1  0  0  0  0
 58120  1  0  0  0  0
 58121  1  0  0  0  0
 59122  1  0  0  0  0
 59123  1  0  0  0  0
 59124  1  0  0  0  0
 60 61  1  0  0  0  0
 61125  1  0  0  0  0
 61126  1  0  0  0  0
 61127  1  0  0  0  0
M  END
$$$$
