Title Card Required
 OpenBabel03192317563D

 42 45  0  0  0  0  0  0  0  0999 V2000
    2.9022   -1.3360   -0.1712 C   0  0  0  0  0  0  0  0  0  0  0  0
    1.7330   -0.7438   -0.7319 C   0  0  0  0  0  0  0  0  0  0  0  0
    0.6360   -0.4186    0.1247 C   0  0  0  0  0  0  0  0  0  0  0  0
    0.7264   -0.7270    1.4671 C   0  0  0  0  0  0  0  0  0  0  0  0
    1.8843   -1.3077    2.0309 C   0  0  0  0  0  0  0  0  0  0  0  0
    2.9532   -1.5964    1.2223 C   0  0  0  0  0  0  0  0  0  0  0  0
   -0.5851    0.2215   -0.4540 C   0  0  0  0  0  0  0  0  0  0  0  0
   -1.6583   -0.6056   -0.9096 C   0  0  0  0  0  0  0  0  0  0  0  0
   -2.8444    0.0019   -1.4197 C   0  0  0  0  0  0  0  0  0  0  0  0
   -2.9317    1.4165   -1.4817 C   0  0  0  0  0  0  0  0  0  0  0  0
   -1.8911    2.2014   -1.0560 C   0  0  0  0  0  0  0  0  0  0  0  0
   -0.7231    1.5915   -0.5454 C   0  0  0  0  0  0  0  0  0  0  0  0
    3.9926   -1.6580   -1.0260 C   0  0  0  0  0  0  0  0  0  0  0  0
    3.9212   -1.4176   -2.3743 C   0  0  0  0  0  0  0  0  0  0  0  0
    2.7536   -0.8395   -2.9344 C   0  0  0  0  0  0  0  0  0  0  0  0
    1.6894   -0.5065   -2.1354 C   0  0  0  0  0  0  0  0  0  0  0  0
   -1.5857   -2.0288   -0.8499 C   0  0  0  0  0  0  0  0  0  0  0  0
   -2.6425   -2.8004   -1.2670 C   0  0  0  0  0  0  0  0  0  0  0  0
   -3.8212   -2.1949   -1.7718 C   0  0  0  0  0  0  0  0  0  0  0  0
   -3.9168   -0.8283   -1.8485 C   0  0  0  0  0  0  0  0  0  0  0  0
   -0.6385   -0.4511    2.5914 S   0  0  0  0  0  0  0  0  0  0  0  0
   -0.1489   -0.6337    3.9319 O   0  0  0  0  0  1  0  0  0  0  0  0
   -1.4122    0.7062    2.2026 O   0  0  0  0  0  1  0  0  0  0  0  0
   -1.5559   -1.7502    2.2848 O   0  0  0  0  0  0  0  0  0  0  0  0
    0.5448    2.6950    0.0611 S   0  0  0  0  0  0  0  0  0  0  0  0
    0.0944    4.0521   -0.1684 O   0  0  0  0  0  1  0  0  0  0  0  0
    1.0313    2.2541    1.3389 O   0  0  0  0  0  1  0  0  0  0  0  0
    1.7503    2.4242   -0.9853 O   0  0  0  0  0  0  0  0  0  0  0  0
    1.9046   -1.5004    3.1030 H   0  0  0  0  0  0  0  0  0  0  0  0
    3.8584   -2.0361    1.6448 H   0  0  0  0  0  0  0  0  0  0  0  0
   -3.8445    1.8733   -1.8678 H   0  0  0  0  0  0  0  0  0  0  0  0
   -1.9463    3.2893   -1.0812 H   0  0  0  0  0  0  0  0  0  0  0  0
    4.8861   -2.1047   -0.5859 H   0  0  0  0  0  0  0  0  0  0  0  0
    4.7617   -1.6729   -3.0212 H   0  0  0  0  0  0  0  0  0  0  0  0
    2.7046   -0.6581   -4.0089 H   0  0  0  0  0  0  0  0  0  0  0  0
    0.7956   -0.0571   -2.5706 H   0  0  0  0  0  0  0  0  0  0  0  0
   -0.6819   -2.4996   -0.4598 H   0  0  0  0  0  0  0  0  0  0  0  0
   -2.5745   -3.8876   -1.2120 H   0  0  0  0  0  0  0  0  0  0  0  0
   -4.6521   -2.8215   -2.0984 H   0  0  0  0  0  0  0  0  0  0  0  0
   -4.8206   -0.3548   -2.2362 H   0  0  0  0  0  0  0  0  0  0  0  0
   -2.2092   -1.5203    1.6025 H   0  0  0  0  0  0  0  0  0  0  0  0
    1.6934    3.0841   -1.6938 H   0  0  0  0  0  0  0  0  0  0  0  0
  1  2  1  0  0  0  0
  1  6  2  0  0  0  0
  1 13  1  0  0  0  0
  2  3  2  0  0  0  0
  2 16  1  0  0  0  0
  3  4  1  0  0  0  0
  3  7  1  0  0  0  0
  4  5  2  0  0  0  0
  4 21  1  0  0  0  0
  5  6  1  0  0  0  0
  5 29  1  0  0  0  0
  6 30  1  0  0  0  0
  7  8  2  0  0  0  0
  7 12  1  0  0  0  0
  8  9  1  0  0  0  0
  8 17  1  0  0  0  0
  9 10  2  0  0  0  0
  9 20  1  0  0  0  0
 10 11  1  0  0  0  0
 10 31  1  0  0  0  0
 11 12  2  0  0  0  0
 11 32  1  0  0  0  0
 12 25  1  0  0  0  0
 13 14  2  0  0  0  0
 13 33  1  0  0  0  0
 14 15  1  0  0  0  0
 14 34  1  0  0  0  0
 15 16  2  0  0  0  0
 15 35  1  0  0  0  0
 16 36  1  0  0  0  0
 17 18  2  0  0  0  0
 17 37  1  0  0  0  0
 18 19  1  0  0  0  0
 18 38  1  0  0  0  0
 19 20  2  0  0  0  0
 19 39  1  0  0  0  0
 20 40  1  0  0  0  0
 21 22  1  0  0  0  0
 21 23  1  0  0  0  0
 21 24  1  0  0  0  0
 24 41  1  0  0  0  0
 25 26  1  0  0  0  0
 25 27  1  0  0  0  0
 25 28  1  0  0  0  0
 28 42  1  0  0  0  0
M  END
$$$$
