Title Card Required
 OpenBabel03192317443D

 56 58  0  0  1  0  0  0  0  0999 V2000
    1.6037   -2.0496   -0.0964 C   0  0  0  0  0  0  0  0  0  0  0  0
    2.1363   -2.4166    1.1348 C   0  0  0  0  0  0  0  0  0  0  0  0
    3.4941   -2.2089    1.3645 C   0  0  0  0  0  0  0  0  0  0  0  0
    4.3105   -1.6320    0.3841 C   0  0  0  0  0  0  0  0  0  0  0  0
    3.7503   -1.3190   -0.8617 C   0  0  0  0  0  0  0  0  0  0  0  0
    2.3991   -1.5260   -1.1124 C   0  0  0  0  0  0  0  0  0  0  0  0
   -0.1533   -2.1077   -0.3185 S   0  0  0  0  0  0  0  0  0  0  0  0
   -0.4219   -1.9841   -1.7466 O   0  0  0  0  0  0  0  0  0  0  0  0
   -0.7132   -3.1988    0.4576 O   0  0  0  0  0  0  0  0  0  0  0  0
   -0.6561   -0.7127    0.4686 N   0  0  0  0  0  0  0  0  0  0  0  0
    5.7494   -1.2932    0.6635 C   0  0  0  0  0  0  0  0  0  0  0  0
   -0.5343    0.5520   -0.2601 C   0  0  1  0  0  0  0  0  0  0  0  0
   -1.5971    1.5499    0.2684 C   0  0  1  0  0  0  0  0  0  0  0  0
   -3.0193    1.0234    0.0890 C   0  0  0  0  0  0  0  0  0  0  0  0
   -4.0529    1.5765    0.8474 C   0  0  0  0  0  0  0  0  0  0  0  0
   -5.3794    1.1731    0.6881 C   0  0  0  0  0  0  0  0  0  0  0  0
   -5.6948    0.1844   -0.2484 C   0  0  0  0  0  0  0  0  0  0  0  0
   -4.6677   -0.3879   -1.0096 C   0  0  0  0  0  0  0  0  0  0  0  0
   -3.3538    0.0264   -0.8449 C   0  0  0  0  0  0  0  0  0  0  0  0
   -6.9423   -0.2807   -0.4772 O   0  0  0  0  0  0  0  0  0  0  0  0
   -7.9989    0.2476    0.2782 C   0  0  0  0  0  0  0  0  0  0  0  0
    0.8732    1.1046   -0.1443 C   0  0  0  0  0  0  0  0  0  0  0  0
    1.4698    1.7574   -1.2191 C   0  0  0  0  0  0  0  0  0  0  0  0
    2.7863    2.2247   -1.1530 C   0  0  0  0  0  0  0  0  0  0  0  0
    3.5270    2.0270    0.0148 C   0  0  0  0  0  0  0  0  0  0  0  0
    2.9264    1.3995    1.1159 C   0  0  0  0  0  0  0  0  0  0  0  0
    1.6192    0.9487    1.0336 C   0  0  0  0  0  0  0  0  0  0  0  0
    4.8250    2.3835    0.1657 O   0  0  0  0  0  0  0  0  0  0  0  0
    5.4777    2.9893   -0.9185 C   0  0  0  0  0  0  0  0  0  0  0  0
   -1.3928    1.9905    1.6347 N   0  0  0  0  0  0  0  0  0  0  0  0
    1.4836   -2.8434    1.8985 H   0  0  0  0  0  0  0  0  0  0  0  0
    3.9258   -2.4808    2.3300 H   0  0  0  0  0  0  0  0  0  0  0  0
    4.3820   -0.8832   -1.6394 H   0  0  0  0  0  0  0  0  0  0  0  0
    1.9452   -1.2645   -2.0691 H   0  0  0  0  0  0  0  0  0  0  0  0
   -1.5954   -0.9049    0.8256 H   0  0  0  0  0  0  0  0  0  0  0  0
    6.4056   -1.6438   -0.1456 H   0  0  0  0  0  0  0  0  0  0  0  0
    5.8622   -0.1991    0.7331 H   0  0  0  0  0  0  0  0  0  0  0  0
    6.0943   -1.7351    1.6071 H   0  0  0  0  0  0  0  0  0  0  0  0
   -0.7368    0.3931   -1.3326 H   0  0  0  0  0  0  0  0  0  0  0  0
   -1.4866    2.4412   -0.3738 H   0  0  0  0  0  0  0  0  0  0  0  0
   -3.8040    2.3436    1.5812 H   0  0  0  0  0  0  0  0  0  0  0  0
   -6.1522    1.6355    1.3005 H   0  0  0  0  0  0  0  0  0  0  0  0
   -4.9278   -1.1695   -1.7238 H   0  0  0  0  0  0  0  0  0  0  0  0
   -2.5848   -0.4687   -1.4429 H   0  0  0  0  0  0  0  0  0  0  0  0
   -7.8543    0.0677    1.3566 H   0  0  0  0  0  0  0  0  0  0  0  0
   -8.1149    1.3315    0.1104 H   0  0  0  0  0  0  0  0  0  0  0  0
   -8.9093   -0.2653   -0.0513 H   0  0  0  0  0  0  0  0  0  0  0  0
    0.9109    1.8822   -2.1504 H   0  0  0  0  0  0  0  0  0  0  0  0
    3.2234    2.7135   -2.0224 H   0  0  0  0  0  0  0  0  0  0  0  0
    3.5237    1.2538    2.0172 H   0  0  0  0  0  0  0  0  0  0  0  0
    1.1741    0.4129    1.8739 H   0  0  0  0  0  0  0  0  0  0  0  0
    5.4957    2.3263   -1.8001 H   0  0  0  0  0  0  0  0  0  0  0  0
    4.9969    3.9412   -1.1986 H   0  0  0  0  0  0  0  0  0  0  0  0
    6.5060    3.1887   -0.5976 H   0  0  0  0  0  0  0  0  0  0  0  0
   -0.4849    2.4394    1.7333 H   0  0  0  0  0  0  0  0  0  0  0  0
   -1.4139    1.1966    2.2742 H   0  0  0  0  0  0  0  0  0  0  0  0
  1  2  2  0  0  0  0
  1  6  1  0  0  0  0
  1  7  1  0  0  0  0
  2  3  1  0  0  0  0
  2 31  1  0  0  0  0
  3  4  2  0  0  0  0
  3 32  1  0  0  0  0
  4  5  1  0  0  0  0
  4 11  1  0  0  0  0
  5  6  2  0  0  0  0
  5 33  1  0  0  0  0
  6 34  1  0  0  0  0
  7  8  2  0  0  0  0
  7  9  2  0  0  0  0
  7 10  1  0  0  0  0
 10 12  1  0  0  0  0
 10 35  1  0  0  0  0
 11 36  1  0  0  0  0
 11 37  1  0  0  0  0
 11 38  1  0  0  0  0
 12 13  1  0  0  0  0
 12 22  1  0  0  0  0
 12 39  1  6  0  0  0
 13 14  1  0  0  0  0
 13 30  1  0  0  0  0
 13 40  1  6  0  0  0
 14 15  2  0  0  0  0
 14 19  1  0  0  0  0
 15 16  1  0  0  0  0
 15 41  1  0  0  0  0
 16 17  2  0  0  0  0
 16 42  1  0  0  0  0
 17 18  1  0  0  0  0
 17 20  1  0  0  0  0
 18 19  2  0  0  0  0
 18 43  1  0  0  0  0
 19 44  1  0  0  0  0
 20 21  1  0  0  0  0
 21 45  1  0  0  0  0
 21 46  1  0  0  0  0
 21 47  1  0  0  0  0
 22 23  2  0  0  0  0
 22 27  1  0  0  0  0
 23 24  1  0  0  0  0
 23 48  1  0  0  0  0
 24 25  2  0  0  0  0
 24 49  1  0  0  0  0
 25 26  1  0  0  0  0
 25 28  1  0  0  0  0
 26 27  2  0  0  0  0
 26 50  1  0  0  0  0
 27 51  1  0  0  0  0
 28 29  1  0  0  0  0
 29 52  1  0  0  0  0
 29 53  1  0  0  0  0
 29 54  1  0  0  0  0
 30 55  1  0  0  0  0
 30 56  1  0  0  0  0
M  END
$$$$
