Title Card Required
 OpenBabel03192317443D

 42 43  0  0  1  0  0  0  0  0999 V2000
   -1.9245   -1.0301   -0.4381 N   0  0  0  0  0  0  0  0  0  0  0  0
   -1.4762   -2.0796    0.2753 C   0  0  0  0  0  0  0  0  0  0  0  0
   -2.4315   -3.3128    0.8534 S   0  0  0  0  0  0  0  0  0  0  0  0
   -0.1099   -2.1204    0.4940 N   0  0  0  0  0  0  0  0  0  0  0  0
    0.8517   -1.1224    0.3312 C   0  0  0  0  0  0  0  0  0  0  0  0
    0.5595    0.2397    0.5081 C   0  0  0  0  0  0  0  0  0  0  0  0
    1.5517    1.1957    0.3251 C   0  0  0  0  0  0  0  0  0  0  0  0
    2.8586    0.8353    0.0044 C   0  0  0  0  0  0  0  0  0  0  0  0
    3.1531   -0.5190   -0.1241 C   0  0  0  0  0  0  0  0  0  0  0  0
    2.1675   -1.4907    0.0191 C   0  0  0  0  0  0  0  0  0  0  0  0
    4.5695   -0.9570   -0.4020 C   0  0  0  0  0  0  0  0  0  0  0  0
    5.2736    0.0046   -0.9959 F   0  0  0  0  0  0  0  0  0  0  0  0
    5.2026   -1.2756    0.7278 F   0  0  0  0  0  0  0  0  0  0  0  0
    4.5999   -2.0337   -1.1881 F   0  0  0  0  0  0  0  0  0  0  0  0
    1.2199    2.6526    0.5312 C   0  0  0  0  0  0  0  0  0  0  0  0
   -0.0911    2.8807    0.4003 F   0  0  0  0  0  0  0  0  0  0  0  0
    1.5736    3.0656    1.7474 F   0  0  0  0  0  0  0  0  0  0  0  0
    1.8569    3.4226   -0.3490 F   0  0  0  0  0  0  0  0  0  0  0  0
   -3.3225   -0.7922   -0.7835 C   0  0  1  0  0  0  0  0  0  0  0  0
   -4.1101   -0.2276    0.4167 C   0  0  1  0  0  0  0  0  0  0  0  0
   -3.5807    1.1628    0.8032 C   0  0  0  0  0  0  0  0  0  0  0  0
   -3.6070    2.1365   -0.3777 C   0  0  0  0  0  0  0  0  0  0  0  0
   -2.8523    1.5713   -1.5819 C   0  0  0  0  0  0  0  0  0  0  0  0
   -3.3711    0.1805   -1.9627 C   0  0  0  0  0  0  0  0  0  0  0  0
   -5.5299   -0.2657    0.0913 N   0  0  0  0  0  0  0  0  0  0  0  0
   -1.2365   -0.4480   -0.9033 H   0  0  0  0  0  0  0  0  0  0  0  0
    0.1987   -3.0183    0.8505 H   0  0  0  0  0  0  0  0  0  0  0  0
   -0.4411    0.5538    0.8006 H   0  0  0  0  0  0  0  0  0  0  0  0
    3.6288    1.5917   -0.1476 H   0  0  0  0  0  0  0  0  0  0  0  0
    2.4147   -2.5435   -0.1278 H   0  0  0  0  0  0  0  0  0  0  0  0
   -3.7819   -1.7553   -1.0482 H   0  0  0  0  0  0  0  0  0  0  0  0
   -3.9508   -0.9274    1.2499 H   0  0  0  0  0  0  0  0  0  0  0  0
   -4.1739    1.5558    1.6434 H   0  0  0  0  0  0  0  0  0  0  0  0
   -2.5450    1.0719    1.1729 H   0  0  0  0  0  0  0  0  0  0  0  0
   -4.6527    2.3379   -0.6703 H   0  0  0  0  0  0  0  0  0  0  0  0
   -3.1820    3.1065   -0.0811 H   0  0  0  0  0  0  0  0  0  0  0  0
   -2.9326    2.2511   -2.4428 H   0  0  0  0  0  0  0  0  0  0  0  0
   -1.7749    1.5301   -1.3362 H   0  0  0  0  0  0  0  0  0  0  0  0
   -2.8104   -0.2356   -2.8146 H   0  0  0  0  0  0  0  0  0  0  0  0
   -4.4209    0.2524   -2.2869 H   0  0  0  0  0  0  0  0  0  0  0  0
   -6.0893   -0.2435    0.9401 H   0  0  0  0  0  0  0  0  0  0  0  0
   -5.8065    0.5451   -0.4587 H   0  0  0  0  0  0  0  0  0  0  0  0
  1  2  1  0  0  0  0
  1 19  1  0  0  0  0
  1 26  1  0  0  0  0
  2  3  2  0  0  0  0
  2  4  1  0  0  0  0
  4  5  1  0  0  0  0
  4 27  1  0  0  0  0
  5  6  2  0  0  0  0
  5 10  1  0  0  0  0
  6  7  1  0  0  0  0
  6 28  1  0  0  0  0
  7  8  2  0  0  0  0
  7 15  1  0  0  0  0
  8  9  1  0  0  0  0
  8 29  1  0  0  0  0
  9 10  2  0  0  0  0
  9 11  1  0  0  0  0
 10 30  1  0  0  0  0
 11 12  1  0  0  0  0
 11 13  1  0  0  0  0
 11 14  1  0  0  0  0
 15 16  1  0  0  0  0
 15 17  1  0  0  0  0
 15 18  1  0  0  0  0
 19 20  1  0  0  0  0
 19 24  1  0  0  0  0
 19 31  1  6  0  0  0
 20 21  1  0  0  0  0
 20 25  1  0  0  0  0
 20 32  1  1  0  0  0
 21 22  1  0  0  0  0
 21 33  1  0  0  0  0
 21 34  1  0  0  0  0
 22 23  1  0  0  0  0
 22 35  1  0  0  0  0
 22 36  1  0  0  0  0
 23 24  1  0  0  0  0
 23 37  1  0  0  0  0
 23 38  1  0  0  0  0
 24 39  1  0  0  0  0
 24 40  1  0  0  0  0
 25 41  1  0  0  0  0
 25 42  1  0  0  0  0
M  END
$$$$
