Title Card Required
 OpenBabel03192317423D

 82 88  0  0  0  0  0  0  0  0999 V2000
    0.8827   -0.0239   -0.6111 O   0  0  0  0  0  0  0  0  0  0  0  0
   -0.1405   -0.9537    0.2252 P   0  0  0  0  0  0  0  0  0  0  0  0
   -1.0539    0.1726    0.9515 O   0  0  0  0  0  0  0  0  0  0  0  0
   -1.5417    1.2004    0.1719 C   0  0  0  0  0  0  0  0  0  0  0  0
   -0.6893    2.2284   -0.1760 C   0  0  0  0  0  0  0  0  0  0  0  0
    0.7249    2.1763    0.2917 C   0  0  0  0  0  0  0  0  0  0  0  0
    1.4796    1.0465    0.0313 C   0  0  0  0  0  0  0  0  0  0  0  0
   -2.8880    1.1042   -0.2843 C   0  0  0  0  0  0  0  0  0  0  0  0
   -3.3665    2.1308   -1.0655 C   0  0  0  0  0  0  0  0  0  0  0  0
   -2.5436    3.2188   -1.4583 C   0  0  0  0  0  0  0  0  0  0  0  0
   -3.0475    4.2462   -2.3021 C   0  0  0  0  0  0  0  0  0  0  0  0
   -2.2312    5.2561   -2.7463 C   0  0  0  0  0  0  0  0  0  0  0  0
   -0.8654    5.2733   -2.3732 C   0  0  0  0  0  0  0  0  0  0  0  0
   -0.3524    4.3021   -1.5470 C   0  0  0  0  0  0  0  0  0  0  0  0
   -1.1800    3.2599   -1.0447 C   0  0  0  0  0  0  0  0  0  0  0  0
    2.8493    0.9158    0.4040 C   0  0  0  0  0  0  0  0  0  0  0  0
    3.4251    1.9727    1.0735 C   0  0  0  0  0  0  0  0  0  0  0  0
    2.6907    3.1354    1.4208 C   0  0  0  0  0  0  0  0  0  0  0  0
    3.2952    4.1925    2.1557 C   0  0  0  0  0  0  0  0  0  0  0  0
    2.5688    5.2950    2.5291 C   0  0  0  0  0  0  0  0  0  0  0  0
    1.1965    5.3836    2.1903 C   0  0  0  0  0  0  0  0  0  0  0  0
    0.5880    4.3851    1.4688 C   0  0  0  0  0  0  0  0  0  0  0  0
    1.3208    3.2413    1.0453 C   0  0  0  0  0  0  0  0  0  0  0  0
   -1.0086   -1.4810   -1.0059 O   0  0  0  0  0  0  0  0  0  0  0  0
    3.6263   -0.3104    0.0909 C   0  0  0  0  0  0  0  0  0  0  0  0
    3.5679   -0.9189   -1.1666 C   0  0  0  0  0  0  0  0  0  0  0  0
    4.3425   -2.0411   -1.4546 C   0  0  0  0  0  0  0  0  0  0  0  0
    5.1968   -2.6039   -0.5003 C   0  0  0  0  0  0  0  0  0  0  0  0
    5.2447   -1.9906    0.7598 C   0  0  0  0  0  0  0  0  0  0  0  0
    4.4786   -0.8690    1.0528 C   0  0  0  0  0  0  0  0  0  0  0  0
    6.0506   -3.8449   -0.7738 C   0  0  0  0  0  0  0  0  0  0  0  0
    5.8816   -4.3516   -2.2085 C   0  0  0  0  0  0  0  0  0  0  0  0
    7.5326   -3.5024   -0.5518 C   0  0  0  0  0  0  0  0  0  0  0  0
    5.6320   -4.9659    0.1913 C   0  0  0  0  0  0  0  0  0  0  0  0
   -3.6967   -0.1097   -0.0037 C   0  0  0  0  0  0  0  0  0  0  0  0
   -3.7600   -0.6941    1.2655 C   0  0  0  0  0  0  0  0  0  0  0  0
   -4.5013   -1.8559    1.4818 C   0  0  0  0  0  0  0  0  0  0  0  0
   -5.2010   -2.4821    0.4440 C   0  0  0  0  0  0  0  0  0  0  0  0
   -5.1338   -1.8878   -0.8255 C   0  0  0  0  0  0  0  0  0  0  0  0
   -4.3994   -0.7285   -1.0482 C   0  0  0  0  0  0  0  0  0  0  0  0
   -6.0119   -3.7657    0.6407 C   0  0  0  0  0  0  0  0  0  0  0  0
   -5.9509   -4.2655    2.0864 C   0  0  0  0  0  0  0  0  0  0  0  0
   -7.4814   -3.4963    0.2783 C   0  0  0  0  0  0  0  0  0  0  0  0
   -5.4521   -4.8647   -0.2772 C   0  0  0  0  0  0  0  0  0  0  0  0
    0.3803   -1.9370    1.1706 O   0  0  0  0  0  0  0  0  0  0  0  0
   -4.4011    2.1011   -1.4152 H   0  0  0  0  0  0  0  0  0  0  0  0
   -4.0973    4.2070   -2.5999 H   0  0  0  0  0  0  0  0  0  0  0  0
   -2.6264    6.0360   -3.3984 H   0  0  0  0  0  0  0  0  0  0  0  0
   -0.2114    6.0609   -2.7499 H   0  0  0  0  0  0  0  0  0  0  0  0
    0.7033    4.3209   -1.2768 H   0  0  0  0  0  0  0  0  0  0  0  0
    4.4803    1.9168    1.3500 H   0  0  0  0  0  0  0  0  0  0  0  0
    4.3494    4.1026    2.4252 H   0  0  0  0  0  0  0  0  0  0  0  0
    3.0416    6.0981    3.0961 H   0  0  0  0  0  0  0  0  0  0  0  0
    0.6152    6.2501    2.5088 H   0  0  0  0  0  0  0  0  0  0  0  0
   -0.4713    4.4596    1.2225 H   0  0  0  0  0  0  0  0  0  0  0  0
   -1.6409   -2.1640   -0.7374 H   0  0  0  0  0  0  0  0  0  0  0  0
    2.9126   -0.5074   -1.9347 H   0  0  0  0  0  0  0  0  0  0  0  0
    4.2670   -2.4761   -2.4508 H   0  0  0  0  0  0  0  0  0  0  0  0
    5.8881   -2.4035    1.5396 H   0  0  0  0  0  0  0  0  0  0  0  0
    4.5224   -0.4306    2.0518 H   0  0  0  0  0  0  0  0  0  0  0  0
    6.1817   -3.5901   -2.9436 H   0  0  0  0  0  0  0  0  0  0  0  0
    6.5152   -5.2371   -2.3635 H   0  0  0  0  0  0  0  0  0  0  0  0
    4.8410   -4.6423   -2.4149 H   0  0  0  0  0  0  0  0  0  0  0  0
    7.7218   -3.1722    0.4796 H   0  0  0  0  0  0  0  0  0  0  0  0
    8.1595   -4.3868   -0.7441 H   0  0  0  0  0  0  0  0  0  0  0  0
    7.8521   -2.6975   -1.2302 H   0  0  0  0  0  0  0  0  0  0  0  0
    5.7783   -4.6710    1.2401 H   0  0  0  0  0  0  0  0  0  0  0  0
    4.5700   -5.2178    0.0565 H   0  0  0  0  0  0  0  0  0  0  0  0
    6.2311   -5.8710    0.0059 H   0  0  0  0  0  0  0  0  0  0  0  0
   -3.2198   -0.2388    2.0957 H   0  0  0  0  0  0  0  0  0  0  0  0
   -4.5225   -2.2727    2.4882 H   0  0  0  0  0  0  0  0  0  0  0  0
   -5.6578   -2.3460   -1.6672 H   0  0  0  0  0  0  0  0  0  0  0  0
   -4.3398   -0.3089   -2.0545 H   0  0  0  0  0  0  0  0  0  0  0  0
   -6.3635   -3.5262    2.7884 H   0  0  0  0  0  0  0  0  0  0  0  0
   -6.5435   -5.1869    2.1818 H   0  0  0  0  0  0  0  0  0  0  0  0
   -4.9194   -4.4959    2.3914 H   0  0  0  0  0  0  0  0  0  0  0  0
   -7.5874   -3.1687   -0.7659 H   0  0  0  0  0  0  0  0  0  0  0  0
   -8.0772   -4.4127    0.4081 H   0  0  0  0  0  0  0  0  0  0  0  0
   -7.9047   -2.7136    0.9248 H   0  0  0  0  0  0  0  0  0  0  0  0
   -5.5121   -4.5777   -1.3369 H   0  0  0  0  0  0  0  0  0  0  0  0
   -4.3983   -5.0728   -0.0390 H   0  0  0  0  0  0  0  0  0  0  0  0
   -6.0244   -5.7959   -0.1471 H   0  0  0  0  0  0  0  0  0  0  0  0
  1  2  1  0  0  0  0
  1  7  1  0  0  0  0
  2  3  1  0  0  0  0
  2 24  1  0  0  0  0
  2 45  2  0  0  0  0
  3  4  1  0  0  0  0
  4  5  2  0  0  0  0
  4  8  1  0  0  0  0
  5  6  1  0  0  0  0
  5 15  1  0  0  0  0
  6  7  2  0  0  0  0
  6 23  1  0  0  0  0
  7 16  1  0  0  0  0
  8  9  2  0  0  0  0
  8 35  1  0  0  0  0
  9 10  1  0  0  0  0
  9 46  1  0  0  0  0
 10 11  2  0  0  0  0
 10 15  1  0  0  0  0
 11 12  1  0  0  0  0
 11 47  1  0  0  0  0
 12 13  2  0  0  0  0
 12 48  1  0  0  0  0
 13 14  1  0  0  0  0
 13 49  1  0  0  0  0
 14 15  2  0  0  0  0
 14 50  1  0  0  0  0
 16 17  2  0  0  0  0
 16 25  1  0  0  0  0
 17 18  1  0  0  0  0
 17 51  1  0  0  0  0
 18 19  2  0  0  0  0
 18 23  1  0  0  0  0
 19 20  1  0  0  0  0
 19 52  1  0  0  0  0
 20 21  2  0  0  0  0
 20 53  1  0  0  0  0
 21 22  1  0  0  0  0
 21 54  1  0  0  0  0
 22 23  2  0  0  0  0
 22 55  1  0  0  0  0
 24 56  1  0  0  0  0
 25 26  2  0  0  0  0
 25 30  1  0  0  0  0
 26 27  1  0  0  0  0
 26 57  1  0  0  0  0
 27 28  2  0  0  0  0
 27 58  1  0  0  0  0
 28 29  1  0  0  0  0
 28 31  1  0  0  0  0
 29 30  2  0  0  0  0
 29 59  1  0  0  0  0
 30 60  1  0  0  0  0
 31 32  1  0  0  0  0
 31 33  1  0  0  0  0
 31 34  1  0  0  0  0
 32 61  1  0  0  0  0
 32 62  1  0  0  0  0
 32 63  1  0  0  0  0
 33 64  1  0  0  0  0
 33 65  1  0  0  0  0
 33 66  1  0  0  0  0
 34 67  1  0  0  0  0
 34 68  1  0  0  0  0
 34 69  1  0  0  0  0
 35 36  2  0  0  0  0
 35 40  1  0  0  0  0
 36 37  1  0  0  0  0
 36 70  1  0  0  0  0
 37 38  2  0  0  0  0
 37 71  1  0  0  0  0
 38 39  1  0  0  0  0
 38 41  1  0  0  0  0
 39 40  2  0  0  0  0
 39 72  1  0  0  0  0
 40 73  1  0  0  0  0
 41 42  1  0  0  0  0
 41 43  1  0  0  0  0
 41 44  1  0  0  0  0
 42 74  1  0  0  0  0
 42 75  1  0  0  0  0
 42 76  1  0  0  0  0
 43 77  1  0  0  0  0
 43 78  1  0  0  0  0
 43 79  1  0  0  0  0
 44 80  1  0  0  0  0
 44 81  1  0  0  0  0
 44 82  1  0  0  0  0
M  END
$$$$
