Title Card Required
 OpenBabel03192317523D

 38 42  0  0  0  0  0  0  0  0999 V2000
    0.8944   -1.1052   -0.8987 O   0  0  0  0  0  0  0  0  0  0  0  0
   -0.0103   -2.1545   -0.0436 P   0  0  0  0  0  0  0  0  0  0  0  0
   -0.8926   -1.1177    0.8570 O   0  0  0  0  0  0  0  0  0  0  0  0
   -1.5105   -0.0564    0.2405 C   0  0  0  0  0  0  0  0  0  0  0  0
   -0.7486    1.0269   -0.1570 C   0  0  0  0  0  0  0  0  0  0  0  0
    0.7109    1.0313    0.1394 C   0  0  0  0  0  0  0  0  0  0  0  0
    1.4859   -0.0414   -0.2689 C   0  0  0  0  0  0  0  0  0  0  0  0
   -2.9164   -0.0965    0.0457 C   0  0  0  0  0  0  0  0  0  0  0  0
   -3.5452    0.9604   -0.5586 C   0  0  0  0  0  0  0  0  0  0  0  0
   -2.7981    2.0684   -1.0405 C   0  0  0  0  0  0  0  0  0  0  0  0
   -3.4435    3.1360   -1.7232 C   0  0  0  0  0  0  0  0  0  0  0  0
   -2.7167    4.1791   -2.2389 C   0  0  0  0  0  0  0  0  0  0  0  0
   -1.3072    4.1915   -2.1045 C   0  0  0  0  0  0  0  0  0  0  0  0
   -0.6575    3.1812   -1.4376 C   0  0  0  0  0  0  0  0  0  0  0  0
   -1.3846    2.0999   -0.8670 C   0  0  0  0  0  0  0  0  0  0  0  0
    2.8933   -0.0617   -0.0674 C   0  0  0  0  0  0  0  0  0  0  0  0
    3.5086    0.9945    0.5531 C   0  0  0  0  0  0  0  0  0  0  0  0
    2.7468    2.0876    1.0440 C   0  0  0  0  0  0  0  0  0  0  0  0
    3.3772    3.1559    1.7402 C   0  0  0  0  0  0  0  0  0  0  0  0
    2.6356    4.1848    2.2629 C   0  0  0  0  0  0  0  0  0  0  0  0
    1.2263    4.1809    2.1227 C   0  0  0  0  0  0  0  0  0  0  0  0
    0.5913    3.1699    1.4431 C   0  0  0  0  0  0  0  0  0  0  0  0
    1.3336    2.1028    0.8639 C   0  0  0  0  0  0  0  0  0  0  0  0
    4.0111   -1.7079   -0.7258 I   0  0  0  0  0  0  0  0  0  0  0  0
   -4.0013   -1.7703    0.6812 I   0  0  0  0  0  0  0  0  0  0  0  0
    0.9367   -2.7520    1.0832 O   0  0  0  0  0  0  0  0  0  0  0  0
   -0.7029   -3.1168   -0.8856 O   0  0  0  0  0  0  0  0  0  0  0  0
   -4.6267    0.9487   -0.7013 H   0  0  0  0  0  0  0  0  0  0  0  0
   -4.5285    3.1014   -1.8383 H   0  0  0  0  0  0  0  0  0  0  0  0
   -3.2195    4.9913   -2.7656 H   0  0  0  0  0  0  0  0  0  0  0  0
   -0.7303    5.0071   -2.5424 H   0  0  0  0  0  0  0  0  0  0  0  0
    0.4289    3.1975   -1.3534 H   0  0  0  0  0  0  0  0  0  0  0  0
    4.5902    0.9952    0.6960 H   0  0  0  0  0  0  0  0  0  0  0  0
    4.4623    3.1341    1.8576 H   0  0  0  0  0  0  0  0  0  0  0  0
    3.1266    4.9987    2.7978 H   0  0  0  0  0  0  0  0  0  0  0  0
    0.6378    4.9859    2.5647 H   0  0  0  0  0  0  0  0  0  0  0  0
   -0.4945    3.1752    1.3525 H   0  0  0  0  0  0  0  0  0  0  0  0
    1.2168   -2.1120    1.7530 H   0  0  0  0  0  0  0  0  0  0  0  0
  1  2  1  0  0  0  0
  1  7  1  0  0  0  0
  2  3  1  0  0  0  0
  2 26  1  0  0  0  0
  2 27  2  0  0  0  0
  3  4  1  0  0  0  0
  4  5  2  0  0  0  0
  4  8  1  0  0  0  0
  5  6  1  0  0  0  0
  5 15  1  0  0  0  0
  6  7  2  0  0  0  0
  6 23  1  0  0  0  0
  7 16  1  0  0  0  0
  8  9  2  0  0  0  0
  8 25  1  0  0  0  0
  9 10  1  0  0  0  0
  9 28  1  0  0  0  0
 10 11  2  0  0  0  0
 10 15  1  0  0  0  0
 11 12  1  0  0  0  0
 11 29  1  0  0  0  0
 12 13  2  0  0  0  0
 12 30  1  0  0  0  0
 13 14  1  0  0  0  0
 13 31  1  0  0  0  0
 14 15  2  0  0  0  0
 14 32  1  0  0  0  0
 16 17  2  0  0  0  0
 16 24  1  0  0  0  0
 17 18  1  0  0  0  0
 17 33  1  0  0  0  0
 18 19  2  0  0  0  0
 18 23  1  0  0  0  0
 19 20  1  0  0  0  0
 19 34  1  0  0  0  0
 20 21  2  0  0  0  0
 20 35  1  0  0  0  0
 21 22  1  0  0  0  0
 21 36  1  0  0  0  0
 22 23  2  0  0  0  0
 22 37  1  0  0  0  0
 26 38  1  0  0  0  0
M  END
$$$$
