Title Card Required
 OpenBabel03192317413D

 69 75  0  0  1  0  0  0  0  0999 V2000
   -1.1370   -2.1285    0.1193 C   0  0  0  0  0  0  0  0  0  0  0  0
   -1.1924   -3.5250    0.1255 C   0  0  0  0  0  0  0  0  0  0  0  0
   -0.0001   -4.2314   -0.0003 C   0  0  0  0  0  0  0  0  0  0  0  0
    1.1922   -3.5250   -0.1259 C   0  0  0  0  0  0  0  0  0  0  0  0
    1.1368   -2.1286   -0.1197 C   0  0  0  0  0  0  0  0  0  0  0  0
   -0.0000   -1.4433   -0.0002 N   0  0  0  0  0  0  0  0  0  0  0  0
    2.3888   -1.3406   -0.2370 C   0  0  2  0  0  3  0  0  0  0  0  0
    2.3198    0.0327   -0.3136 N   0  0  0  0  0  0  0  0  0  0  0  0
    3.6694    0.5303   -0.0905 C   0  0  1  0  0  0  0  0  0  0  0  0
    4.4902   -0.7544   -0.4699 C   0  0  2  0  0  0  0  0  0  0  0  0
    3.5538   -1.8634   -0.3021 N   0  0  0  0  0  2  0  0  0  0  0  0
    5.7650   -0.8868    0.3248 C   0  0  0  0  0  0  0  0  0  0  0  0
    5.7960   -1.6395    1.5018 C   0  0  0  0  0  0  0  0  0  0  0  0
    6.9591   -1.7032    2.2675 C   0  0  0  0  0  0  0  0  0  0  0  0
    8.1020   -1.0120    1.8663 C   0  0  0  0  0  0  0  0  0  0  0  0
    8.0794   -0.2637    0.6897 C   0  0  0  0  0  0  0  0  0  0  0  0
    6.9178   -0.2052   -0.0791 C   0  0  0  0  0  0  0  0  0  0  0  0
    4.0378    1.7509   -0.8947 C   0  0  0  0  0  0  0  0  0  0  0  0
    4.9898    2.6492   -0.4024 C   0  0  0  0  0  0  0  0  0  0  0  0
    5.3887    3.7459   -1.1657 C   0  0  0  0  0  0  0  0  0  0  0  0
    4.8327    3.9599   -2.4262 C   0  0  0  0  0  0  0  0  0  0  0  0
    3.8775    3.0709   -2.9200 C   0  0  0  0  0  0  0  0  0  0  0  0
    3.4841    1.9714   -2.1600 C   0  0  0  0  0  0  0  0  0  0  0  0
   -2.3889   -1.3405    0.2367 C   0  0  1  0  0  3  0  0  0  0  0  0
   -3.5539   -1.8632    0.3021 N   0  0  0  0  0  2  0  0  0  0  0  0
   -4.4902   -0.7542    0.4700 C   0  0  1  0  0  0  0  0  0  0  0  0
   -3.6695    0.5304    0.0904 C   0  0  2  0  0  0  0  0  0  0  0  0
   -2.3199    0.0328    0.3133 N   0  0  0  0  0  0  0  0  0  0  0  0
   -4.0377    1.7512    0.8945 C   0  0  0  0  0  0  0  0  0  0  0  0
   -3.4833    1.9720    2.1594 C   0  0  0  0  0  0  0  0  0  0  0  0
   -3.8764    3.0717    2.9193 C   0  0  0  0  0  0  0  0  0  0  0  0
   -4.8319    3.9605    2.4257 C   0  0  0  0  0  0  0  0  0  0  0  0
   -5.3886    3.7460    1.1656 C   0  0  0  0  0  0  0  0  0  0  0  0
   -4.9899    2.6492    0.4023 C   0  0  0  0  0  0  0  0  0  0  0  0
   -5.7652   -0.8866   -0.3244 C   0  0  0  0  0  0  0  0  0  0  0  0
   -6.9180   -0.2054    0.0800 C   0  0  0  0  0  0  0  0  0  0  0  0
   -8.0798   -0.2641   -0.6886 C   0  0  0  0  0  0  0  0  0  0  0  0
   -8.1025   -1.0120   -1.8653 C   0  0  0  0  0  0  0  0  0  0  0  0
   -6.9595   -1.7029   -2.2670 C   0  0  0  0  0  0  0  0  0  0  0  0
   -5.7962   -1.6391   -1.5015 C   0  0  0  0  0  0  0  0  0  0  0  0
   -2.1641   -4.0076    0.2289 H   0  0  0  0  0  0  0  0  0  0  0  0
   -0.0001   -5.3221   -0.0003 H   0  0  0  0  0  0  0  0  0  0  0  0
    2.1639   -4.0077   -0.2294 H   0  0  0  0  0  0  0  0  0  0  0  0
    1.5126    0.4918    0.0927 H   0  0  0  0  0  0  0  0  0  0  0  0
    3.8358    0.7430    0.9827 H   0  0  0  0  0  0  0  0  0  0  0  0
    4.7492   -0.6874   -1.5431 H   0  0  0  0  0  0  0  0  0  0  0  0
    4.9006   -2.1880    1.7993 H   0  0  0  0  0  0  0  0  0  0  0  0
    6.9742   -2.3001    3.1810 H   0  0  0  0  0  0  0  0  0  0  0  0
    9.0122   -1.0614    2.4661 H   0  0  0  0  0  0  0  0  0  0  0  0
    8.9730    0.2718    0.3648 H   0  0  0  0  0  0  0  0  0  0  0  0
    6.9031    0.3750   -1.0053 H   0  0  0  0  0  0  0  0  0  0  0  0
    5.4238    2.4834    0.5870 H   0  0  0  0  0  0  0  0  0  0  0  0
    6.1318    4.4403   -0.7705 H   0  0  0  0  0  0  0  0  0  0  0  0
    5.1383    4.8219   -3.0213 H   0  0  0  0  0  0  0  0  0  0  0  0
    3.4340    3.2359   -3.9035 H   0  0  0  0  0  0  0  0  0  0  0  0
    2.7335    1.2740   -2.5367 H   0  0  0  0  0  0  0  0  0  0  0  0
   -4.7490   -0.6872    1.5433 H   0  0  0  0  0  0  0  0  0  0  0  0
   -3.8360    0.7429   -0.9829 H   0  0  0  0  0  0  0  0  0  0  0  0
   -1.5126    0.4919   -0.0928 H   0  0  0  0  0  0  0  0  0  0  0  0
   -2.7325    1.2748    2.5359 H   0  0  0  0  0  0  0  0  0  0  0  0
   -3.4325    3.2370    3.9025 H   0  0  0  0  0  0  0  0  0  0  0  0
   -5.1374    4.8226    3.0208 H   0  0  0  0  0  0  0  0  0  0  0  0
   -6.1320    4.4403    0.7705 H   0  0  0  0  0  0  0  0  0  0  0  0
   -5.4244    2.4831   -0.5868 H   0  0  0  0  0  0  0  0  0  0  0  0
   -6.9032    0.3746    1.0062 H   0  0  0  0  0  0  0  0  0  0  0  0
   -8.9735    0.2712   -0.3634 H   0  0  0  0  0  0  0  0  0  0  0  0
   -9.0129   -1.0615   -2.4650 H   0  0  0  0  0  0  0  0  0  0  0  0
   -6.9747   -2.2996   -3.1806 H   0  0  0  0  0  0  0  0  0  0  0  0
   -4.9009   -2.1874   -1.7994 H   0  0  0  0  0  0  0  0  0  0  0  0
  1  2  2  0  0  0  0
  1  6  1  0  0  0  0
  2  3  1  0  0  0  0
  2 41  1  0  0  0  0
  3  4  2  0  0  0  0
  3 42  1  0  0  0  0
  4  5  1  0  0  0  0
  4 43  1  0  0  0  0
  5  6  2  0  0  0  0
  7  5  1  6  0  0  0
  7  8  1  0  0  0  0
  7 11  1  0  0  0  0
  8  9  1  0  0  0  0
  8 44  1  0  0  0  0
  9 10  1  0  0  0  0
  9 18  1  0  0  0  0
  9 45  1  1  0  0  0
 10 11  1  0  0  0  0
 10 12  1  0  0  0  0
 10 46  1  6  0  0  0
 12 13  2  0  0  0  0
 12 17  1  0  0  0  0
 13 14  1  0  0  0  0
 13 47  1  0  0  0  0
 14 15  2  0  0  0  0
 14 48  1  0  0  0  0
 15 16  1  0  0  0  0
 15 49  1  0  0  0  0
 16 17  2  0  0  0  0
 16 50  1  0  0  0  0
 17 51  1  0  0  0  0
 18 19  2  0  0  0  0
 18 23  1  0  0  0  0
 19 20  1  0  0  0  0
 19 52  1  0  0  0  0
 20 21  2  0  0  0  0
 20 53  1  0  0  0  0
 21 22  1  0  0  0  0
 21 54  1  0  0  0  0
 22 23  2  0  0  0  0
 22 55  1  0  0  0  0
 23 56  1  0  0  0  0
 24  1  1  1  0  0  0
 24 25  1  0  0  0  0
 24 28  1  0  0  0  0
 25 26  1  0  0  0  0
 26 27  1  0  0  0  0
 26 35  1  0  0  0  0
 26 57  1  1  0  0  0
 27 28  1  0  0  0  0
 27 29  1  0  0  0  0
 27 58  1  6  0  0  0
 28 59  1  0  0  0  0
 29 30  2  0  0  0  0
 29 34  1  0  0  0  0
 30 31  1  0  0  0  0
 30 60  1  0  0  0  0
 31 32  2  0  0  0  0
 31 61  1  0  0  0  0
 32 33  1  0  0  0  0
 32 62  1  0  0  0  0
 33 34  2  0  0  0  0
 33 63  1  0  0  0  0
 34 64  1  0  0  0  0
 35 36  2  0  0  0  0
 35 40  1  0  0  0  0
 36 37  1  0  0  0  0
 36 65  1  0  0  0  0
 37 38  2  0  0  0  0
 37 66  1  0  0  0  0
 38 39  1  0  0  0  0
 38 67  1  0  0  0  0
 39 40  2  0  0  0  0
 39 68  1  0  0  0  0
 40 69  1  0  0  0  0
M  END
$$$$
