Title Card Required
 OpenBabel03192317483D

 68 75  0  0  0  0  0  0  0  0999 V2000
   -1.8074    2.0849    2.4472 C   0  0  0  0  0  0  0  0  0  0  0  0
   -0.6272    2.0787    1.6487 C   0  0  0  0  0  0  0  0  0  0  0  0
   -0.6016    1.3220    0.4388 C   0  0  0  0  0  0  0  0  0  0  0  0
   -1.7150    0.5959    0.0586 C   0  0  0  0  0  0  0  0  0  0  0  0
   -2.8994    0.5774    0.8656 C   0  0  0  0  0  0  0  0  0  0  0  0
   -2.9251    1.3243    2.0221 C   0  0  0  0  0  0  0  0  0  0  0  0
   -1.8368    2.8467    3.6472 C   0  0  0  0  0  0  0  0  0  0  0  0
   -0.7451    3.5795    4.0409 C   0  0  0  0  0  0  0  0  0  0  0  0
    0.4270    3.5806    3.2440 C   0  0  0  0  0  0  0  0  0  0  0  0
    0.4863    2.8516    2.0814 C   0  0  0  0  0  0  0  0  0  0  0  0
    0.6016    1.3221   -0.4388 C   0  0  0  0  0  0  0  0  0  0  0  0
    0.6273    2.0789   -1.6485 C   0  0  0  0  0  0  0  0  0  0  0  0
    1.8074    2.0852   -2.4471 C   0  0  0  0  0  0  0  0  0  0  0  0
    2.9251    1.3245   -2.0221 C   0  0  0  0  0  0  0  0  0  0  0  0
    2.8994    0.5774   -0.8656 C   0  0  0  0  0  0  0  0  0  0  0  0
    1.7150    0.5958   -0.0587 C   0  0  0  0  0  0  0  0  0  0  0  0
   -0.4863    2.8519   -2.0812 C   0  0  0  0  0  0  0  0  0  0  0  0
   -0.4269    3.5811   -3.2437 C   0  0  0  0  0  0  0  0  0  0  0  0
    0.7452    3.5799   -4.0406 C   0  0  0  0  0  0  0  0  0  0  0  0
    1.8369    2.8471   -3.6470 C   0  0  0  0  0  0  0  0  0  0  0  0
   -1.6575   -0.0783   -1.1118 O   0  0  0  0  0  0  0  0  0  0  0  0
    1.6574   -0.0786    1.1116 O   0  0  0  0  0  0  0  0  0  0  0  0
   -4.0792   -0.2316    0.4592 C   0  0  0  0  0  0  0  0  0  0  0  0
    4.0792   -0.2316   -0.4593 C   0  0  0  0  0  0  0  0  0  0  0  0
   -3.9502   -1.5589    0.0937 C   0  0  0  0  0  0  0  0  0  0  0  0
   -5.0783   -2.3428   -0.2699 C   0  0  0  0  0  0  0  0  0  0  0  0
   -6.3710   -1.7458   -0.2552 C   0  0  0  0  0  0  0  0  0  0  0  0
   -5.3797    0.3529    0.4694 C   0  0  0  0  0  0  0  0  0  0  0  0
    5.3797    0.3529   -0.4694 C   0  0  0  0  0  0  0  0  0  0  0  0
    6.4860   -0.3803   -0.1252 C   0  0  0  0  0  0  0  0  0  0  0  0
    6.3710   -1.7459    0.2551 C   0  0  0  0  0  0  0  0  0  0  0  0
    5.0783   -2.3428    0.2697 C   0  0  0  0  0  0  0  0  0  0  0  0
    3.9502   -1.5589   -0.0938 C   0  0  0  0  0  0  0  0  0  0  0  0
   -6.4860   -0.3803    0.1252 C   0  0  0  0  0  0  0  0  0  0  0  0
    7.4985   -2.5305    0.6185 C   0  0  0  0  0  0  0  0  0  0  0  0
    7.3487   -3.8489    0.9741 C   0  0  0  0  0  0  0  0  0  0  0  0
    6.0627   -4.4451    0.9833 C   0  0  0  0  0  0  0  0  0  0  0  0
    4.9547   -3.7104    0.6395 C   0  0  0  0  0  0  0  0  0  0  0  0
   -4.9547   -3.7103   -0.6397 C   0  0  0  0  0  0  0  0  0  0  0  0
   -6.0628   -4.4450   -0.9835 C   0  0  0  0  0  0  0  0  0  0  0  0
   -7.3488   -3.8488   -0.9742 C   0  0  0  0  0  0  0  0  0  0  0  0
   -7.4986   -2.5304   -0.6186 C   0  0  0  0  0  0  0  0  0  0  0  0
   -3.8226    1.3118    2.6457 H   0  0  0  0  0  0  0  0  0  0  0  0
   -2.7477    2.8379    4.2498 H   0  0  0  0  0  0  0  0  0  0  0  0
   -0.7758    4.1630    4.9621 H   0  0  0  0  0  0  0  0  0  0  0  0
    1.2906    4.1696    3.5575 H   0  0  0  0  0  0  0  0  0  0  0  0
    1.3899    2.8608    1.4704 H   0  0  0  0  0  0  0  0  0  0  0  0
    3.8226    1.3121   -2.6456 H   0  0  0  0  0  0  0  0  0  0  0  0
   -1.3898    2.8610   -1.4701 H   0  0  0  0  0  0  0  0  0  0  0  0
   -1.2905    4.1700   -3.5572 H   0  0  0  0  0  0  0  0  0  0  0  0
    0.7759    4.1635   -4.9617 H   0  0  0  0  0  0  0  0  0  0  0  0
    2.7478    2.8383   -4.2496 H   0  0  0  0  0  0  0  0  0  0  0  0
   -2.5356   -0.4092   -1.3415 H   0  0  0  0  0  0  0  0  0  0  0  0
    2.5355   -0.4094    1.3413 H   0  0  0  0  0  0  0  0  0  0  0  0
   -2.9654   -2.0340    0.1043 H   0  0  0  0  0  0  0  0  0  0  0  0
   -5.4786    1.4046    0.7443 H   0  0  0  0  0  0  0  0  0  0  0  0
    5.4786    1.4045   -0.7443 H   0  0  0  0  0  0  0  0  0  0  0  0
    7.4756    0.0813   -0.1318 H   0  0  0  0  0  0  0  0  0  0  0  0
    2.9654   -2.0340   -0.1044 H   0  0  0  0  0  0  0  0  0  0  0  0
   -7.4756    0.0813    0.1318 H   0  0  0  0  0  0  0  0  0  0  0  0
    8.4869   -2.0665    0.6078 H   0  0  0  0  0  0  0  0  0  0  0  0
    8.2207   -4.4436    1.2503 H   0  0  0  0  0  0  0  0  0  0  0  0
    5.9568   -5.4934    1.2658 H   0  0  0  0  0  0  0  0  0  0  0  0
    3.9621   -4.1655    0.6450 H   0  0  0  0  0  0  0  0  0  0  0  0
   -3.9622   -4.1654   -0.6452 H   0  0  0  0  0  0  0  0  0  0  0  0
   -5.9569   -5.4933   -1.2660 H   0  0  0  0  0  0  0  0  0  0  0  0
   -8.2207   -4.4435   -1.2505 H   0  0  0  0  0  0  0  0  0  0  0  0
   -8.4869   -2.0664   -0.6079 H   0  0  0  0  0  0  0  0  0  0  0  0
  1  2  1  0  0  0  0
  1  6  2  0  0  0  0
  1  7  1  0  0  0  0
  2  3  2  0  0  0  0
  2 10  1  0  0  0  0
  3  4  1  0  0  0  0
  3 11  1  0  0  0  0
  4  5  2  0  0  0  0
  4 21  1  0  0  0  0
  5  6  1  0  0  0  0
  5 23  1  0  0  0  0
  6 43  1  0  0  0  0
  7  8  2  0  0  0  0
  7 44  1  0  0  0  0
  8  9  1  0  0  0  0
  8 45  1  0  0  0  0
  9 10  2  0  0  0  0
  9 46  1  0  0  0  0
 10 47  1  0  0  0  0
 11 12  2  0  0  0  0
 11 16  1  0  0  0  0
 12 13  1  0  0  0  0
 12 17  1  0  0  0  0
 13 14  2  0  0  0  0
 13 20  1  0  0  0  0
 14 15  1  0  0  0  0
 14 48  1  0  0  0  0
 15 16  2  0  0  0  0
 15 24  1  0  0  0  0
 16 22  1  0  0  0  0
 17 18  2  0  0  0  0
 17 49  1  0  0  0  0
 18 19  1  0  0  0  0
 18 50  1  0  0  0  0
 19 20  2  0  0  0  0
 19 51  1  0  0  0  0
 20 52  1  0  0  0  0
 21 53  1  0  0  0  0
 22 54  1  0  0  0  0
 23 25  2  0  0  0  0
 23 28  1  0  0  0  0
 24 29  2  0  0  0  0
 24 33  1  0  0  0  0
 25 26  1  0  0  0  0
 25 55  1  0  0  0  0
 26 27  2  0  0  0  0
 26 39  1  0  0  0  0
 27 34  1  0  0  0  0
 27 42  1  0  0  0  0
 28 34  2  0  0  0  0
 28 56  1  0  0  0  0
 29 30  1  0  0  0  0
 29 57  1  0  0  0  0
 30 31  2  0  0  0  0
 30 58  1  0  0  0  0
 31 32  1  0  0  0  0
 31 35  1  0  0  0  0
 32 33  2  0  0  0  0
 32 38  1  0  0  0  0
 33 59  1  0  0  0  0
 34 60  1  0  0  0  0
 35 36  2  0  0  0  0
 35 61  1  0  0  0  0
 36 37  1  0  0  0  0
 36 62  1  0  0  0  0
 37 38  2  0  0  0  0
 37 63  1  0  0  0  0
 38 64  1  0  0  0  0
 39 40  2  0  0  0  0
 39 65  1  0  0  0  0
 40 41  1  0  0  0  0
 40 66  1  0  0  0  0
 41 42  2  0  0  0  0
 41 67  1  0  0  0  0
 42 68  1  0  0  0  0
M  END
$$$$
