Title Card Required
 OpenBabel03192317563D

 59 61  0  0  1  0  0  0  0  0999 V2000
    1.3234   -1.7825    1.7129 N   0  0  0  0  0  0  0  0  0  0  0  0
    1.3109   -0.3321    1.5551 C   0  0  1  0  0  0  0  0  0  0  0  0
    2.7505    0.1095    1.8691 C   0  0  0  0  0  0  0  0  0  0  0  0
    3.1557   -0.8418    3.0113 C   0  0  0  0  0  0  0  0  0  0  0  0
    2.1260   -2.0058    2.9132 C   0  0  0  0  0  0  0  0  0  0  0  0
    0.6705    0.1102    0.2145 C   0  0  0  0  0  0  0  0  0  0  0  0
    0.6798    1.6392    0.0453 C   0  0  0  0  0  0  0  0  0  0  0  0
    0.6514    2.2222   -1.2282 C   0  0  0  0  0  0  0  0  0  0  0  0
    0.4949    3.5988   -1.3873 C   0  0  0  0  0  0  0  0  0  0  0  0
    0.3633    4.4233   -0.2720 C   0  0  0  0  0  0  0  0  0  0  0  0
    0.3875    3.8570    1.0014 C   0  0  0  0  0  0  0  0  0  0  0  0
    0.5390    2.4805    1.1554 C   0  0  0  0  0  0  0  0  0  0  0  0
    1.3740   -0.6082   -0.9420 C   0  0  0  0  0  0  0  0  0  0  0  0
    2.5929   -0.1471   -1.4583 C   0  0  0  0  0  0  0  0  0  0  0  0
    3.2553   -0.8502   -2.4626 C   0  0  0  0  0  0  0  0  0  0  0  0
    2.7108   -2.0302   -2.9686 C   0  0  0  0  0  0  0  0  0  0  0  0
    1.5027   -2.5006   -2.4581 C   0  0  0  0  0  0  0  0  0  0  0  0
    0.8405   -1.7967   -1.4509 C   0  0  0  0  0  0  0  0  0  0  0  0
   -0.6641   -0.3218    0.3104 O   0  0  0  0  0  0  0  0  0  0  0  0
   -2.1407    0.1083   -0.3643 Si  0  0  0  0  0  0  0  0  0  0  0  0
   -2.6605    1.8392    0.1434 C   0  0  0  0  0  0  0  0  0  0  0  0
   -2.1164   -0.0292   -2.2388 C   0  0  0  0  0  0  0  0  0  0  0  0
   -3.2777   -1.1986    0.4112 C   0  0  0  0  0  0  0  0  0  0  0  0
   -3.3907   -0.9215    1.9161 C   0  0  0  0  0  0  0  0  0  0  0  0
   -4.6681   -1.1524   -0.2323 C   0  0  0  0  0  0  0  0  0  0  0  0
   -2.6503   -2.5846    0.2074 C   0  0  0  0  0  0  0  0  0  0  0  0
    1.8031   -2.1888    0.9094 H   0  0  0  0  0  0  0  0  0  0  0  0
    0.6388    0.0551    2.3405 H   0  0  0  0  0  0  0  0  0  0  0  0
    3.3845   -0.0699    0.9882 H   0  0  0  0  0  0  0  0  0  0  0  0
    2.8400    1.1714    2.1359 H   0  0  0  0  0  0  0  0  0  0  0  0
    4.1906   -1.1917    2.8984 H   0  0  0  0  0  0  0  0  0  0  0  0
    3.0882   -0.3430    3.9885 H   0  0  0  0  0  0  0  0  0  0  0  0
    2.5958   -2.9978    2.8778 H   0  0  0  0  0  0  0  0  0  0  0  0
    1.4643   -1.9944    3.7934 H   0  0  0  0  0  0  0  0  0  0  0  0
    0.7475    1.5923   -2.1136 H   0  0  0  0  0  0  0  0  0  0  0  0
    0.4740    4.0260   -2.3912 H   0  0  0  0  0  0  0  0  0  0  0  0
    0.2415    5.5006   -0.3940 H   0  0  0  0  0  0  0  0  0  0  0  0
    0.2818    4.4902    1.8837 H   0  0  0  0  0  0  0  0  0  0  0  0
    0.5306    2.0620    2.1620 H   0  0  0  0  0  0  0  0  0  0  0  0
    3.0202    0.7857   -1.0849 H   0  0  0  0  0  0  0  0  0  0  0  0
    4.1998   -0.4697   -2.8551 H   0  0  0  0  0  0  0  0  0  0  0  0
    3.2267   -2.5791   -3.7579 H   0  0  0  0  0  0  0  0  0  0  0  0
    1.0695   -3.4250   -2.8439 H   0  0  0  0  0  0  0  0  0  0  0  0
   -0.0967   -2.1722   -1.0389 H   0  0  0  0  0  0  0  0  0  0  0  0
   -2.0736    2.6109   -0.3771 H   0  0  0  0  0  0  0  0  0  0  0  0
   -3.7239    2.0012   -0.0940 H   0  0  0  0  0  0  0  0  0  0  0  0
   -2.5249    1.9845    1.2254 H   0  0  0  0  0  0  0  0  0  0  0  0
   -1.8423   -1.0409   -2.5716 H   0  0  0  0  0  0  0  0  0  0  0  0
   -3.1105    0.2119   -2.6463 H   0  0  0  0  0  0  0  0  0  0  0  0
   -1.3971    0.6772   -2.6783 H   0  0  0  0  0  0  0  0  0  0  0  0
   -3.8799    0.0444    2.1182 H   0  0  0  0  0  0  0  0  0  0  0  0
   -3.9910   -1.7077    2.4060 H   0  0  0  0  0  0  0  0  0  0  0  0
   -2.3964   -0.9118    2.3897 H   0  0  0  0  0  0  0  0  0  0  0  0
   -4.6298   -1.3922   -1.3066 H   0  0  0  0  0  0  0  0  0  0  0  0
   -5.3367   -1.8886    0.2465 H   0  0  0  0  0  0  0  0  0  0  0  0
   -5.1403   -0.1623   -0.1234 H   0  0  0  0  0  0  0  0  0  0  0  0
   -2.5265   -2.8214   -0.8627 H   0  0  0  0  0  0  0  0  0  0  0  0
   -1.6637   -2.6408    0.6929 H   0  0  0  0  0  0  0  0  0  0  0  0
   -3.2981   -3.3650    0.6431 H   0  0  0  0  0  0  0  0  0  0  0  0
  1  2  1  0  0  0  0
  1  5  1  0  0  0  0
  1 27  1  0  0  0  0
  2  3  1  0  0  0  0
  2  6  1  0  0  0  0
  2 28  1  1  0  0  0
  3  4  1  0  0  0  0
  3 29  1  0  0  0  0
  3 30  1  0  0  0  0
  4  5  1  0  0  0  0
  4 31  1  0  0  0  0
  4 32  1  0  0  0  0
  5 33  1  0  0  0  0
  5 34  1  0  0  0  0
  6  7  1  0  0  0  0
  6 13  1  0  0  0  0
  6 19  1  0  0  0  0
  7  8  2  0  0  0  0
  7 12  1  0  0  0  0
  8  9  1  0  0  0  0
  8 35  1  0  0  0  0
  9 10  2  0  0  0  0
  9 36  1  0  0  0  0
 10 11  1  0  0  0  0
 10 37  1  0  0  0  0
 11 12  2  0  0  0  0
 11 38  1  0  0  0  0
 12 39  1  0  0  0  0
 13 14  2  0  0  0  0
 13 18  1  0  0  0  0
 14 15  1  0  0  0  0
 14 40  1  0  0  0  0
 15 16  2  0  0  0  0
 15 41  1  0  0  0  0
 16 17  1  0  0  0  0
 16 42  1  0  0  0  0
 17 18  2  0  0  0  0
 17 43  1  0  0  0  0
 18 44  1  0  0  0  0
 19 20  1  0  0  0  0
 20 21  1  0  0  0  0
 20 22  1  0  0  0  0
 20 23  1  0  0  0  0
 21 45  1  0  0  0  0
 21 46  1  0  0  0  0
 21 47  1  0  0  0  0
 22 48  1  0  0  0  0
 22 49  1  0  0  0  0
 22 50  1  0  0  0  0
 23 24  1  0  0  0  0
 23 25  1  0  0  0  0
 23 26  1  0  0  0  0
 24 51  1  0  0  0  0
 24 52  1  0  0  0  0
 24 53  1  0  0  0  0
 25 54  1  0  0  0  0
 25 55  1  0  0  0  0
 25 56  1  0  0  0  0
 26 57  1  0  0  0  0
 26 58  1  0  0  0  0
 26 59  1  0  0  0  0
M  END
$$$$
