Title Card Required
 OpenBabel03192317493D

 50 54  0  0  0  0  0  0  0  0999 V2000
    1.4599   -0.7806   -1.4282 O   0  0  0  0  0  0  0  0  0  0  0  0
    2.0210   -2.0020   -0.4113 P   0  0  0  0  0  0  0  0  0  0  0  0
    0.9025   -1.7397    0.8205 O   0  0  0  0  0  0  0  0  0  0  0  0
   -0.4290   -1.6472    0.5071 C   0  0  0  0  0  0  0  0  0  0  0  0
   -0.9289   -0.4713   -0.0189 C   0  0  0  0  0  0  0  0  0  0  0  0
    0.0023    0.6720   -0.2241 C   0  0  0  0  0  0  0  0  0  0  0  0
    1.1612    0.4659   -0.9486 C   0  0  0  0  0  0  0  0  0  0  0  0
   -1.2425   -2.7851    0.7786 C   0  0  0  0  0  0  0  0  0  0  0  0
   -2.5825   -2.7000    0.4947 C   0  0  0  0  0  0  0  0  0  0  0  0
   -3.1488   -1.5373   -0.0951 C   0  0  0  0  0  0  0  0  0  0  0  0
   -4.5290   -1.4826   -0.4300 C   0  0  0  0  0  0  0  0  0  0  0  0
   -5.0633   -0.3761   -1.0424 C   0  0  0  0  0  0  0  0  0  0  0  0
   -4.2310    0.7244   -1.3590 C   0  0  0  0  0  0  0  0  0  0  0  0
   -2.8948    0.7055   -1.0380 C   0  0  0  0  0  0  0  0  0  0  0  0
   -2.3168   -0.4155   -0.3794 C   0  0  0  0  0  0  0  0  0  0  0  0
    2.0955    1.5058   -1.2300 C   0  0  0  0  0  0  0  0  0  0  0  0
    1.8357    2.7583   -0.7342 C   0  0  0  0  0  0  0  0  0  0  0  0
    0.6957    3.0196    0.0747 C   0  0  0  0  0  0  0  0  0  0  0  0
    0.4738    4.3063    0.6356 C   0  0  0  0  0  0  0  0  0  0  0  0
   -0.6002    4.5421    1.4581 C   0  0  0  0  0  0  0  0  0  0  0  0
   -1.4961    3.4902    1.7641 C   0  0  0  0  0  0  0  0  0  0  0  0
   -1.3148    2.2381    1.2268 C   0  0  0  0  0  0  0  0  0  0  0  0
   -0.2258    1.9681    0.3515 C   0  0  0  0  0  0  0  0  0  0  0  0
    3.3372   -1.3770    0.4167 N   0  0  0  0  0  0  0  0  0  0  0  0
    3.3173    1.1775   -2.0393 C   0  0  0  0  0  0  0  0  0  0  0  0
   -0.5994   -4.0099    1.3634 C   0  0  0  0  0  0  0  0  0  0  0  0
    3.3194   -0.2665    1.3537 C   0  0  0  0  0  0  0  0  0  0  0  0
    4.6463   -1.9497    0.1735 C   0  0  0  0  0  0  0  0  0  0  0  0
   -3.2351   -3.5509    0.7058 H   0  0  0  0  0  0  0  0  0  0  0  0
   -5.1554   -2.3459   -0.1954 H   0  0  0  0  0  0  0  0  0  0  0  0
   -6.1239   -0.3468   -1.2965 H   0  0  0  0  0  0  0  0  0  0  0  0
   -4.6530    1.5928   -1.8668 H   0  0  0  0  0  0  0  0  0  0  0  0
   -2.2610    1.5547   -1.2947 H   0  0  0  0  0  0  0  0  0  0  0  0
    2.5303    3.5767   -0.9393 H   0  0  0  0  0  0  0  0  0  0  0  0
    1.1835    5.1040    0.4064 H   0  0  0  0  0  0  0  0  0  0  0  0
   -0.7573    5.5330    1.8868 H   0  0  0  0  0  0  0  0  0  0  0  0
   -2.3348    3.6730    2.4375 H   0  0  0  0  0  0  0  0  0  0  0  0
   -2.0064    1.4334    1.4768 H   0  0  0  0  0  0  0  0  0  0  0  0
    3.9444    2.0661   -2.1827 H   0  0  0  0  0  0  0  0  0  0  0  0
    3.9108    0.3981   -1.5360 H   0  0  0  0  0  0  0  0  0  0  0  0
    3.0372    0.7730   -3.0226 H   0  0  0  0  0  0  0  0  0  0  0  0
   -1.3466   -4.7895    1.5567 H   0  0  0  0  0  0  0  0  0  0  0  0
    0.1591   -4.4162    0.6769 H   0  0  0  0  0  0  0  0  0  0  0  0
   -0.0806   -3.7670    2.3016 H   0  0  0  0  0  0  0  0  0  0  0  0
    3.7778   -0.5756    2.3083 H   0  0  0  0  0  0  0  0  0  0  0  0
    3.8862    0.5952    0.9594 H   0  0  0  0  0  0  0  0  0  0  0  0
    2.2883    0.0480    1.5515 H   0  0  0  0  0  0  0  0  0  0  0  0
    5.0950   -2.3115    1.1141 H   0  0  0  0  0  0  0  0  0  0  0  0
    4.5660   -2.7982   -0.5203 H   0  0  0  0  0  0  0  0  0  0  0  0
    5.3349   -1.2085   -0.2687 H   0  0  0  0  0  0  0  0  0  0  0  0
  1  2  1  0  0  0  0
  1  7  1  0  0  0  0
  2  3  1  0  0  0  0
  2 24  1  0  0  0  0
  3  4  1  0  0  0  0
  4  5  2  0  0  0  0
  4  8  1  0  0  0  0
  5  6  1  0  0  0  0
  5 15  1  0  0  0  0
  6  7  2  0  0  0  0
  6 23  1  0  0  0  0
  7 16  1  0  0  0  0
  8  9  2  0  0  0  0
  8 26  1  0  0  0  0
  9 10  1  0  0  0  0
  9 29  1  0  0  0  0
 10 11  2  0  0  0  0
 10 15  1  0  0  0  0
 11 12  1  0  0  0  0
 11 30  1  0  0  0  0
 12 13  2  0  0  0  0
 12 31  1  0  0  0  0
 13 14  1  0  0  0  0
 13 32  1  0  0  0  0
 14 15  2  0  0  0  0
 14 33  1  0  0  0  0
 16 17  2  0  0  0  0
 16 25  1  0  0  0  0
 17 18  1  0  0  0  0
 17 34  1  0  0  0  0
 18 19  2  0  0  0  0
 18 23  1  0  0  0  0
 19 20  1  0  0  0  0
 19 35  1  0  0  0  0
 20 21  2  0  0  0  0
 20 36  1  0  0  0  0
 21 22  1  0  0  0  0
 21 37  1  0  0  0  0
 22 23  2  0  0  0  0
 22 38  1  0  0  0  0
 24 27  1  0  0  0  0
 24 28  1  0  0  0  0
 25 39  1  0  0  0  0
 25 40  1  0  0  0  0
 25 41  1  0  0  0  0
 26 42  1  0  0  0  0
 26 43  1  0  0  0  0
 26 44  1  0  0  0  0
 27 45  1  0  0  0  0
 27 46  1  0  0  0  0
 27 47  1  0  0  0  0
 28 48  1  0  0  0  0
 28 49  1  0  0  0  0
 28 50  1  0  0  0  0
M  END
$$$$
