Title Card Required
 OpenBabel03192317513D

 57 62  0  0  0  0  0  0  0  0999 V2000
   -2.8667   -1.2587   -0.1436 N   0  0  0  0  0  0  0  0  0  0  0  0
   -2.8483   -0.2181   -1.1747 C   0  0  0  0  0  0  0  0  0  0  0  0
   -3.9678    0.7948   -0.9498 C   0  0  0  0  0  0  0  0  0  0  0  0
   -5.3235    0.0970   -0.8458 C   0  0  0  0  0  0  0  0  0  0  0  0
   -5.2874   -0.9919    0.2259 C   0  0  0  0  0  0  0  0  0  0  0  0
   -4.1421   -1.9637   -0.0434 C   0  0  0  0  0  0  0  0  0  0  0  0
   -0.8623   -0.7409    1.5794 O   0  0  0  0  0  0  0  0  0  0  0  0
   -1.5234   -1.9373    0.5976 P   0  0  0  0  0  0  0  0  0  0  0  0
   -0.4678   -1.7145   -0.7003 O   0  0  0  0  0  0  0  0  0  0  0  0
    0.8819   -1.6596   -0.4731 C   0  0  0  0  0  0  0  0  0  0  0  0
    1.4441   -0.4975    0.0190 C   0  0  0  0  0  0  0  0  0  0  0  0
    0.5596    0.6697    0.2847 C   0  0  0  0  0  0  0  0  0  0  0  0
   -0.5470    0.4996    1.0953 C   0  0  0  0  0  0  0  0  0  0  0  0
    1.6477   -2.8187   -0.7907 C   0  0  0  0  0  0  0  0  0  0  0  0
    3.0039   -2.7694   -0.5859 C   0  0  0  0  0  0  0  0  0  0  0  0
    3.6352   -1.6224   -0.0322 C   0  0  0  0  0  0  0  0  0  0  0  0
    5.0328   -1.6065    0.2251 C   0  0  0  0  0  0  0  0  0  0  0  0
    5.6317   -0.5152    0.8044 C   0  0  0  0  0  0  0  0  0  0  0  0
    4.8497    0.6086    1.1639 C   0  0  0  0  0  0  0  0  0  0  0  0
    3.4975    0.6274    0.9181 C   0  0  0  0  0  0  0  0  0  0  0  0
    2.8519   -0.4777    0.2961 C   0  0  0  0  0  0  0  0  0  0  0  0
   -1.4039    1.5749    1.4732 C   0  0  0  0  0  0  0  0  0  0  0  0
   -1.1478    2.8177    0.9501 C   0  0  0  0  0  0  0  0  0  0  0  0
   -0.0791    3.0390    0.0384 C   0  0  0  0  0  0  0  0  0  0  0  0
    0.1367    4.3165   -0.5458 C   0  0  0  0  0  0  0  0  0  0  0  0
    1.1488    4.5166   -1.4521 C   0  0  0  0  0  0  0  0  0  0  0  0
    1.9860    3.4370   -1.8218 C   0  0  0  0  0  0  0  0  0  0  0  0
    1.8091    2.1925   -1.2659 C   0  0  0  0  0  0  0  0  0  0  0  0
    0.7835    1.9585   -0.3073 C   0  0  0  0  0  0  0  0  0  0  0  0
   -2.5246    1.2992    2.4340 C   0  0  0  0  0  0  0  0  0  0  0  0
    0.9400   -4.0260   -1.3354 C   0  0  0  0  0  0  0  0  0  0  0  0
   -2.9806   -0.6980   -2.1641 H   0  0  0  0  0  0  0  0  0  0  0  0
   -1.8658    0.2689   -1.1852 H   0  0  0  0  0  0  0  0  0  0  0  0
   -3.9655    1.5225   -1.7751 H   0  0  0  0  0  0  0  0  0  0  0  0
   -3.7625    1.3559   -0.0240 H   0  0  0  0  0  0  0  0  0  0  0  0
   -6.1209    0.8246   -0.6346 H   0  0  0  0  0  0  0  0  0  0  0  0
   -5.5663   -0.3671   -1.8180 H   0  0  0  0  0  0  0  0  0  0  0  0
   -5.1449   -0.5346    1.2191 H   0  0  0  0  0  0  0  0  0  0  0  0
   -6.2385   -1.5448    0.2540 H   0  0  0  0  0  0  0  0  0  0  0  0
   -4.0698   -2.7206    0.7516 H   0  0  0  0  0  0  0  0  0  0  0  0
   -4.3441   -2.5003   -0.9919 H   0  0  0  0  0  0  0  0  0  0  0  0
    3.6195   -3.6381   -0.8328 H   0  0  0  0  0  0  0  0  0  0  0  0
    5.6209   -2.4878   -0.0402 H   0  0  0  0  0  0  0  0  0  0  0  0
    6.7049   -0.5162    1.0001 H   0  0  0  0  0  0  0  0  0  0  0  0
    5.3232    1.4648    1.6468 H   0  0  0  0  0  0  0  0  0  0  0  0
    2.9037    1.4940    1.2091 H   0  0  0  0  0  0  0  0  0  0  0  0
   -1.7858    3.6622    1.2232 H   0  0  0  0  0  0  0  0  0  0  0  0
   -0.5262    5.1372   -0.2634 H   0  0  0  0  0  0  0  0  0  0  0  0
    1.3020    5.5011   -1.8966 H   0  0  0  0  0  0  0  0  0  0  0  0
    2.7746    3.5914   -2.5598 H   0  0  0  0  0  0  0  0  0  0  0  0
    2.4530    1.3655   -1.5659 H   0  0  0  0  0  0  0  0  0  0  0  0
   -3.1543    2.1880    2.5694 H   0  0  0  0  0  0  0  0  0  0  0  0
   -3.1445    0.4681    2.0685 H   0  0  0  0  0  0  0  0  0  0  0  0
   -2.1277    0.9915    3.4130 H   0  0  0  0  0  0  0  0  0  0  0  0
    1.6538   -4.8264   -1.5666 H   0  0  0  0  0  0  0  0  0  0  0  0
    0.2084   -4.4106   -0.6083 H   0  0  0  0  0  0  0  0  0  0  0  0
    0.3788   -3.7709   -2.2458 H   0  0  0  0  0  0  0  0  0  0  0  0
  1  2  1  0  0  0  0
  1  6  1  0  0  0  0
  1  8  1  0  0  0  0
  2  3  1  0  0  0  0
  2 32  1  0  0  0  0
  2 33  1  0  0  0  0
  3  4  1  0  0  0  0
  3 34  1  0  0  0  0
  3 35  1  0  0  0  0
  4  5  1  0  0  0  0
  4 36  1  0  0  0  0
  4 37  1  0  0  0  0
  5  6  1  0  0  0  0
  5 38  1  0  0  0  0
  5 39  1  0  0  0  0
  6 40  1  0  0  0  0
  6 41  1  0  0  0  0
  7  8  1  0  0  0  0
  7 13  1  0  0  0  0
  8  9  1  0  0  0  0
  9 10  1  0  0  0  0
 10 11  2  0  0  0  0
 10 14  1  0  0  0  0
 11 12  1  0  0  0  0
 11 21  1  0  0  0  0
 12 13  2  0  0  0  0
 12 29  1  0  0  0  0
 13 22  1  0  0  0  0
 14 15  2  0  0  0  0
 14 31  1  0  0  0  0
 15 16  1  0  0  0  0
 15 42  1  0  0  0  0
 16 17  2  0  0  0  0
 16 21  1  0  0  0  0
 17 18  1  0  0  0  0
 17 43  1  0  0  0  0
 18 19  2  0  0  0  0
 18 44  1  0  0  0  0
 19 20  1  0  0  0  0
 19 45  1  0  0  0  0
 20 21  2  0  0  0  0
 20 46  1  0  0  0  0
 22 23  2  0  0  0  0
 22 30  1  0  0  0  0
 23 24  1  0  0  0  0
 23 47  1  0  0  0  0
 24 25  2  0  0  0  0
 24 29  1  0  0  0  0
 25 26  1  0  0  0  0
 25 48  1  0  0  0  0
 26 27  2  0  0  0  0
 26 49  1  0  0  0  0
 27 28  1  0  0  0  0
 27 50  1  0  0  0  0
 28 29  2  0  0  0  0
 28 51  1  0  0  0  0
 30 52  1  0  0  0  0
 30 53  1  0  0  0  0
 30 54  1  0  0  0  0
 31 55  1  0  0  0  0
 31 56  1  0  0  0  0
 31 57  1  0  0  0  0
M  END
$$$$
