Title Card Required
 OpenBabel03192317513D

 70 78  0  0  0  0  0  0  0  0999 V2000
   -0.0137   -1.4602   -0.0750 P   0  0  0  0  0  0  0  0  0  0  0  0
   -0.8573   -2.4383   -0.7941 O   0  0  0  0  0  0  0  0  0  0  0  0
    1.1492   -2.0067    0.8705 O   0  0  0  0  0  0  0  0  0  0  0  0
    0.7024   -0.4073   -1.0818 O   0  0  0  0  0  0  0  0  0  0  0  0
   -0.6976   -0.4505    0.9850 O   0  0  0  0  0  0  0  0  0  0  0  0
    0.7302    1.7137   -0.0035 C   0  0  0  0  0  0  0  0  0  0  0  0
    1.4152    0.6368   -0.5334 C   0  0  0  0  0  0  0  0  0  0  0  0
    2.8330    0.5270   -0.5170 C   0  0  0  0  0  0  0  0  0  0  0  0
    3.5510    1.5641    0.0307 C   0  0  0  0  0  0  0  0  0  0  0  0
    2.9079    2.6891    0.6107 C   0  0  0  0  0  0  0  0  0  0  0  0
    3.6640    3.7309    1.2154 C   0  0  0  0  0  0  0  0  0  0  0  0
    3.0403    4.7859    1.8323 C   0  0  0  0  0  0  0  0  0  0  0  0
    1.6259    4.8366    1.8834 C   0  0  0  0  0  0  0  0  0  0  0  0
    0.8676    3.8517    1.2983 C   0  0  0  0  0  0  0  0  0  0  0  0
    1.4838    2.7602    0.6238 C   0  0  0  0  0  0  0  0  0  0  0  0
   -0.7588    1.7010   -0.0395 C   0  0  0  0  0  0  0  0  0  0  0  0
   -1.4287    0.6058    0.4753 C   0  0  0  0  0  0  0  0  0  0  0  0
   -2.8450    0.4898    0.4891 C   0  0  0  0  0  0  0  0  0  0  0  0
   -3.5773    1.5279   -0.0387 C   0  0  0  0  0  0  0  0  0  0  0  0
   -2.9517    2.6622   -0.6186 C   0  0  0  0  0  0  0  0  0  0  0  0
   -3.7237    3.7023   -1.2060 C   0  0  0  0  0  0  0  0  0  0  0  0
   -3.1164    4.7707   -1.8161 C   0  0  0  0  0  0  0  0  0  0  0  0
   -1.7029    4.8383   -1.8768 C   0  0  0  0  0  0  0  0  0  0  0  0
   -0.9296    3.8554   -1.3085 C   0  0  0  0  0  0  0  0  0  0  0  0
   -1.5288    2.7488   -0.6432 C   0  0  0  0  0  0  0  0  0  0  0  0
   -3.4946   -0.7203    1.0675 C   0  0  0  0  0  0  0  0  0  0  0  0
   -3.4007   -0.9598    2.4217 C   0  0  0  0  0  0  0  0  0  0  0  0
   -4.0459   -2.0696    3.0142 C   0  0  0  0  0  0  0  0  0  0  0  0
   -4.7800   -2.9327    2.2401 C   0  0  0  0  0  0  0  0  0  0  0  0
   -4.8832   -2.7373    0.8370 C   0  0  0  0  0  0  0  0  0  0  0  0
   -5.6211   -3.6361    0.0186 C   0  0  0  0  0  0  0  0  0  0  0  0
   -5.6899   -3.4566   -1.3399 C   0  0  0  0  0  0  0  0  0  0  0  0
   -5.0100   -2.3716   -1.9460 C   0  0  0  0  0  0  0  0  0  0  0  0
   -4.2957   -1.4811   -1.1829 C   0  0  0  0  0  0  0  0  0  0  0  0
   -4.2237   -1.6260    0.2314 C   0  0  0  0  0  0  0  0  0  0  0  0
    3.4914   -0.6883   -1.0745 C   0  0  0  0  0  0  0  0  0  0  0  0
    3.3866   -0.9647   -2.4215 C   0  0  0  0  0  0  0  0  0  0  0  0
    4.0211   -2.0928   -2.9909 C   0  0  0  0  0  0  0  0  0  0  0  0
    4.7527   -2.9438   -2.2013 C   0  0  0  0  0  0  0  0  0  0  0  0
    4.8665   -2.7141   -0.8038 C   0  0  0  0  0  0  0  0  0  0  0  0
    5.5974   -3.6034    0.0325 C   0  0  0  0  0  0  0  0  0  0  0  0
    5.6753   -3.3942    1.3864 C   0  0  0  0  0  0  0  0  0  0  0  0
    5.0134   -2.2855    1.9700 C   0  0  0  0  0  0  0  0  0  0  0  0
    4.3080   -1.4021    1.1896 C   0  0  0  0  0  0  0  0  0  0  0  0
    4.2239   -1.5791   -0.2219 C   0  0  0  0  0  0  0  0  0  0  0  0
    1.5805   -2.7987    0.5193 H   0  0  0  0  0  0  0  0  0  0  0  0
    4.6422    1.5116    0.0461 H   0  0  0  0  0  0  0  0  0  0  0  0
    4.7536    3.6671    1.1869 H   0  0  0  0  0  0  0  0  0  0  0  0
    3.6290    5.5779    2.2971 H   0  0  0  0  0  0  0  0  0  0  0  0
    1.1329    5.6626    2.3980 H   0  0  0  0  0  0  0  0  0  0  0  0
   -0.2201    3.8959    1.3543 H   0  0  0  0  0  0  0  0  0  0  0  0
   -4.6681    1.4675   -0.0343 H   0  0  0  0  0  0  0  0  0  0  0  0
   -4.8122    3.6259   -1.1698 H   0  0  0  0  0  0  0  0  0  0  0  0
   -3.7177    5.5608   -2.2678 H   0  0  0  0  0  0  0  0  0  0  0  0
   -1.2229    5.6754   -2.3858 H   0  0  0  0  0  0  0  0  0  0  0  0
    0.1571    3.9120   -1.3728 H   0  0  0  0  0  0  0  0  0  0  0  0
   -2.8225   -0.2737    3.0436 H   0  0  0  0  0  0  0  0  0  0  0  0
   -3.9608   -2.2295    4.0899 H   0  0  0  0  0  0  0  0  0  0  0  0
   -5.2882   -3.7884    2.6895 H   0  0  0  0  0  0  0  0  0  0  0  0
   -6.1275   -4.4781    0.4955 H   0  0  0  0  0  0  0  0  0  0  0  0
   -6.2572   -4.1540   -1.9581 H   0  0  0  0  0  0  0  0  0  0  0  0
   -5.0449   -2.2499   -3.0295 H   0  0  0  0  0  0  0  0  0  0  0  0
   -3.7575   -0.6627   -1.6619 H   0  0  0  0  0  0  0  0  0  0  0  0
    2.8031   -0.2952   -3.0559 H   0  0  0  0  0  0  0  0  0  0  0  0
    3.9258   -2.2786   -4.0614 H   0  0  0  0  0  0  0  0  0  0  0  0
    5.2498   -3.8151   -2.6326 H   0  0  0  0  0  0  0  0  0  0  0  0
    6.0918   -4.4615   -0.4276 H   0  0  0  0  0  0  0  0  0  0  0  0
    6.2378   -4.0838    2.0175 H   0  0  0  0  0  0  0  0  0  0  0  0
    5.0590   -2.1362    3.0496 H   0  0  0  0  0  0  0  0  0  0  0  0
    3.7852   -0.5642    1.6514 H   0  0  0  0  0  0  0  0  0  0  0  0
  1  2  2  0  0  0  0
  1  3  1  0  0  0  0
  1  4  1  0  0  0  0
  1  5  1  0  0  0  0
  3 46  1  0  0  0  0
  4  7  1  0  0  0  0
  5 17  1  0  0  0  0
  6  7  2  0  0  0  0
  6 15  1  0  0  0  0
  6 16  1  0  0  0  0
  7  8  1  0  0  0  0
  8  9  2  0  0  0  0
  8 36  1  0  0  0  0
  9 10  1  0  0  0  0
  9 47  1  0  0  0  0
 10 11  2  0  0  0  0
 10 15  1  0  0  0  0
 11 12  1  0  0  0  0
 11 48  1  0  0  0  0
 12 13  2  0  0  0  0
 12 49  1  0  0  0  0
 13 14  1  0  0  0  0
 13 50  1  0  0  0  0
 14 15  2  0  0  0  0
 14 51  1  0  0  0  0
 16 17  2  0  0  0  0
 16 25  1  0  0  0  0
 17 18  1  0  0  0  0
 18 19  2  0  0  0  0
 18 26  1  0  0  0  0
 19 20  1  0  0  0  0
 19 52  1  0  0  0  0
 20 21  2  0  0  0  0
 20 25  1  0  0  0  0
 21 22  1  0  0  0  0
 21 53  1  0  0  0  0
 22 23  2  0  0  0  0
 22 54  1  0  0  0  0
 23 24  1  0  0  0  0
 23 55  1  0  0  0  0
 24 25  2  0  0  0  0
 24 56  1  0  0  0  0
 26 27  2  0  0  0  0
 26 35  1  0  0  0  0
 27 28  1  0  0  0  0
 27 57  1  0  0  0  0
 28 29  2  0  0  0  0
 28 58  1  0  0  0  0
 29 30  1  0  0  0  0
 29 59  1  0  0  0  0
 30 31  2  0  0  0  0
 30 35  1  0  0  0  0
 31 32  1  0  0  0  0
 31 60  1  0  0  0  0
 32 33  2  0  0  0  0
 32 61  1  0  0  0  0
 33 34  1  0  0  0  0
 33 62  1  0  0  0  0
 34 35  2  0  0  0  0
 34 63  1  0  0  0  0
 36 37  2  0  0  0  0
 36 45  1  0  0  0  0
 37 38  1  0  0  0  0
 37 64  1  0  0  0  0
 38 39  2  0  0  0  0
 38 65  1  0  0  0  0
 39 40  1  0  0  0  0
 39 66  1  0  0  0  0
 40 41  2  0  0  0  0
 40 45  1  0  0  0  0
 41 42  1  0  0  0  0
 41 67  1  0  0  0  0
 42 43  2  0  0  0  0
 42 68  1  0  0  0  0
 43 44  1  0  0  0  0
 43 69  1  0  0  0  0
 44 45  2  0  0  0  0
 44 70  1  0  0  0  0
M  END
$$$$
