Title Card Required
 OpenBabel03192317493D

 82 92  0  0  0  0  0  0  0  0999 V2000
    0.0134   -0.9983   -0.2400 P   0  0  0  0  0  0  0  0  0  0  0  0
   -0.5210   -2.0160   -1.1413 O   0  0  0  0  0  0  0  0  0  0  0  0
    0.8326   -1.4817    1.0395 O   0  0  0  0  0  0  0  0  0  0  0  0
    0.9807    0.0566   -1.0029 O   0  0  0  0  0  0  0  0  0  0  0  0
   -1.0001    0.0107    0.5134 O   0  0  0  0  0  0  0  0  0  0  0  0
    0.6250    2.2005   -0.0341 C   0  0  0  0  0  0  0  0  0  0  0  0
    1.4644    1.1324   -0.2902 C   0  0  0  0  0  0  0  0  0  0  0  0
    2.8091    1.0681    0.1682 C   0  0  0  0  0  0  0  0  0  0  0  0
    3.2978    2.1411    0.8759 C   0  0  0  0  0  0  0  0  0  0  0  0
    2.4809    3.2577    1.1935 C   0  0  0  0  0  0  0  0  0  0  0  0
    2.9876    4.3345    1.9721 C   0  0  0  0  0  0  0  0  0  0  0  0
    2.1780    5.3803    2.3375 C   0  0  0  0  0  0  0  0  0  0  0  0
    0.8164    5.3874    1.9473 C   0  0  0  0  0  0  0  0  0  0  0  0
    0.3010    4.3685    1.1830 C   0  0  0  0  0  0  0  0  0  0  0  0
    1.1214    3.2836    0.7639 C   0  0  0  0  0  0  0  0  0  0  0  0
   -0.7772    2.1432   -0.5326 C   0  0  0  0  0  0  0  0  0  0  0  0
   -1.5507    1.0410   -0.2241 C   0  0  0  0  0  0  0  0  0  0  0  0
   -2.9015    0.8885   -0.6420 C   0  0  0  0  0  0  0  0  0  0  0  0
   -3.4537    1.8905   -1.4035 C   0  0  0  0  0  0  0  0  0  0  0  0
   -2.6986    3.0281   -1.7977 C   0  0  0  0  0  0  0  0  0  0  0  0
   -3.2675    4.0298   -2.6306 C   0  0  0  0  0  0  0  0  0  0  0  0
   -2.5208    5.1009   -3.0541 C   0  0  0  0  0  0  0  0  0  0  0  0
   -1.1631    5.2099   -2.6689 C   0  0  0  0  0  0  0  0  0  0  0  0
   -0.5882    4.2637   -1.8545 C   0  0  0  0  0  0  0  0  0  0  0  0
   -1.3428    3.1560   -1.3782 C   0  0  0  0  0  0  0  0  0  0  0  0
   -5.0944   -3.2889   -2.0635 C   0  0  0  0  0  0  0  0  0  0  0  0
   -5.7976   -4.4487   -1.8164 C   0  0  0  0  0  0  0  0  0  0  0  0
   -6.1699   -4.7659   -0.4973 C   0  0  0  0  0  0  0  0  0  0  0  0
   -5.8341   -3.9247    0.5455 C   0  0  0  0  0  0  0  0  0  0  0  0
   -5.1147   -2.7294    0.3206 C   0  0  0  0  0  0  0  0  0  0  0  0
   -4.7393   -1.8137    1.3925 C   0  0  0  0  0  0  0  0  0  0  0  0
   -5.0778   -2.0611    2.7424 C   0  0  0  0  0  0  0  0  0  0  0  0
   -4.7243   -1.1830    3.7466 C   0  0  0  0  0  0  0  0  0  0  0  0
   -4.0158   -0.0091    3.4384 C   0  0  0  0  0  0  0  0  0  0  0  0
   -3.6724    0.2591    2.1301 C   0  0  0  0  0  0  0  0  0  0  0  0
   -4.0167   -0.6301    1.0861 C   0  0  0  0  0  0  0  0  0  0  0  0
   -3.6583   -0.3448   -0.2911 C   0  0  0  0  0  0  0  0  0  0  0  0
   -4.0137   -1.2086   -1.2801 C   0  0  0  0  0  0  0  0  0  0  0  0
   -4.7451   -2.4143   -1.0101 C   0  0  0  0  0  0  0  0  0  0  0  0
    5.1354   -1.8506   -3.0637 C   0  0  0  0  0  0  0  0  0  0  0  0
    5.9357   -2.9255   -3.3854 C   0  0  0  0  0  0  0  0  0  0  0  0
    6.4232   -3.7587   -2.3615 C   0  0  0  0  0  0  0  0  0  0  0  0
    6.1024   -3.5077   -1.0423 C   0  0  0  0  0  0  0  0  0  0  0  0
    5.2815   -2.4136   -0.6835 C   0  0  0  0  0  0  0  0  0  0  0  0
    4.9026   -2.1206    0.6939 C   0  0  0  0  0  0  0  0  0  0  0  0
    5.3152   -2.9377    1.7723 C   0  0  0  0  0  0  0  0  0  0  0  0
    4.9241   -2.6731    3.0687 C   0  0  0  0  0  0  0  0  0  0  0  0
    4.0881   -1.5762    3.3409 C   0  0  0  0  0  0  0  0  0  0  0  0
    3.6754   -0.7556    2.3123 C   0  0  0  0  0  0  0  0  0  0  0  0
    4.0791   -0.9957    0.9762 C   0  0  0  0  0  0  0  0  0  0  0  0
    3.6376   -0.1390   -0.1116 C   0  0  0  0  0  0  0  0  0  0  0  0
    3.9746   -0.4459   -1.3937 C   0  0  0  0  0  0  0  0  0  0  0  0
    4.7978   -1.5758   -1.7184 C   0  0  0  0  0  0  0  0  0  0  0  0
    1.3173   -2.3053    0.8848 H   0  0  0  0  0  0  0  0  0  0  0  0
    4.3308    2.1225    1.2316 H   0  0  0  0  0  0  0  0  0  0  0  0
    4.0339    4.3046    2.2829 H   0  0  0  0  0  0  0  0  0  0  0  0
    2.5748    6.1988    2.9394 H   0  0  0  0  0  0  0  0  0  0  0  0
    0.1688    6.2071    2.2613 H   0  0  0  0  0  0  0  0  0  0  0  0
   -0.7512    4.3811    0.8982 H   0  0  0  0  0  0  0  0  0  0  0  0
   -4.4928    1.8031   -1.7281 H   0  0  0  0  0  0  0  0  0  0  0  0
   -4.3103    3.9227   -2.9355 H   0  0  0  0  0  0  0  0  0  0  0  0
   -2.9657    5.8611   -3.6976 H   0  0  0  0  0  0  0  0  0  0  0  0
   -0.5646    6.0490   -3.0264 H   0  0  0  0  0  0  0  0  0  0  0  0
    0.4618    4.3518   -1.5755 H   0  0  0  0  0  0  0  0  0  0  0  0
   -4.7921   -3.0292   -3.0800 H   0  0  0  0  0  0  0  0  0  0  0  0
   -6.0614   -5.1179   -2.6363 H   0  0  0  0  0  0  0  0  0  0  0  0
   -6.7249   -5.6828   -0.2935 H   0  0  0  0  0  0  0  0  0  0  0  0
   -6.1349   -4.2002    1.5553 H   0  0  0  0  0  0  0  0  0  0  0  0
   -5.6307   -2.9616    3.0060 H   0  0  0  0  0  0  0  0  0  0  0  0
   -4.9978   -1.4016    4.7800 H   0  0  0  0  0  0  0  0  0  0  0  0
   -3.7381    0.6878    4.2302 H   0  0  0  0  0  0  0  0  0  0  0  0
   -3.1252    1.1722    1.8914 H   0  0  0  0  0  0  0  0  0  0  0  0
   -3.7175   -1.0017   -2.3108 H   0  0  0  0  0  0  0  0  0  0  0  0
    4.7474   -1.1931   -3.8441 H   0  0  0  0  0  0  0  0  0  0  0  0
    6.1894   -3.1312   -4.4262 H   0  0  0  0  0  0  0  0  0  0  0  0
    7.0574   -4.6108   -2.6103 H   0  0  0  0  0  0  0  0  0  0  0  0
    6.4957   -4.1728   -0.2749 H   0  0  0  0  0  0  0  0  0  0  0  0
    5.9508   -3.8014    1.5832 H   0  0  0  0  0  0  0  0  0  0  0  0
    5.2561   -3.3232    3.8793 H   0  0  0  0  0  0  0  0  0  0  0  0
    3.7596   -1.3768    4.3618 H   0  0  0  0  0  0  0  0  0  0  0  0
    3.0084    0.0805    2.5215 H   0  0  0  0  0  0  0  0  0  0  0  0
    3.6184    0.1858   -2.2104 H   0  0  0  0  0  0  0  0  0  0  0  0
  1  2  2  0  0  0  0
  1  3  1  0  0  0  0
  1  4  1  0  0  0  0
  1  5  1  0  0  0  0
  3 54  1  0  0  0  0
  4  7  1  0  0  0  0
  5 17  1  0  0  0  0
  6  7  2  0  0  0  0
  6 15  1  0  0  0  0
  6 16  1  0  0  0  0
  7  8  1  0  0  0  0
  8  9  2  0  0  0  0
  8 51  1  0  0  0  0
  9 10  1  0  0  0  0
  9 55  1  0  0  0  0
 10 11  2  0  0  0  0
 10 15  1  0  0  0  0
 11 12  1  0  0  0  0
 11 56  1  0  0  0  0
 12 13  2  0  0  0  0
 12 57  1  0  0  0  0
 13 14  1  0  0  0  0
 13 58  1  0  0  0  0
 14 15  2  0  0  0  0
 14 59  1  0  0  0  0
 16 17  2  0  0  0  0
 16 25  1  0  0  0  0
 17 18  1  0  0  0  0
 18 19  2  0  0  0  0
 18 37  1  0  0  0  0
 19 20  1  0  0  0  0
 19 60  1  0  0  0  0
 20 21  2  0  0  0  0
 20 25  1  0  0  0  0
 21 22  1  0  0  0  0
 21 61  1  0  0  0  0
 22 23  2  0  0  0  0
 22 62  1  0  0  0  0
 23 24  1  0  0  0  0
 23 63  1  0  0  0  0
 24 25  2  0  0  0  0
 24 64  1  0  0  0  0
 26 27  2  0  0  0  0
 26 39  1  0  0  0  0
 26 65  1  0  0  0  0
 27 28  1  0  0  0  0
 27 66  1  0  0  0  0
 28 29  2  0  0  0  0
 28 67  1  0  0  0  0
 29 30  1  0  0  0  0
 29 68  1  0  0  0  0
 30 31  2  0  0  0  0
 30 39  1  0  0  0  0
 31 32  1  0  0  0  0
 31 36  1  0  0  0  0
 32 33  2  0  0  0  0
 32 69  1  0  0  0  0
 33 34  1  0  0  0  0
 33 70  1  0  0  0  0
 34 35  2  0  0  0  0
 34 71  1  0  0  0  0
 35 36  1  0  0  0  0
 35 72  1  0  0  0  0
 36 37  2  0  0  0  0
 37 38  1  0  0  0  0
 38 39  2  0  0  0  0
 38 73  1  0  0  0  0
 40 41  2  0  0  0  0
 40 53  1  0  0  0  0
 40 74  1  0  0  0  0
 41 42  1  0  0  0  0
 41 75  1  0  0  0  0
 42 43  2  0  0  0  0
 42 76  1  0  0  0  0
 43 44  1  0  0  0  0
 43 77  1  0  0  0  0
 44 45  2  0  0  0  0
 44 53  1  0  0  0  0
 45 46  1  0  0  0  0
 45 50  1  0  0  0  0
 46 47  2  0  0  0  0
 46 78  1  0  0  0  0
 47 48  1  0  0  0  0
 47 79  1  0  0  0  0
 48 49  2  0  0  0  0
 48 80  1  0  0  0  0
 49 50  1  0  0  0  0
 49 81  1  0  0  0  0
 50 51  2  0  0  0  0
 51 52  1  0  0  0  0
 52 53  2  0  0  0  0
 52 82  1  0  0  0  0
M  END
$$$$
