Title Card Required
 OpenBabel03192317483D

 96102  0  0  1  0  0  0  0  0999 V2000
   -3.4831   -2.7233   -0.4290 C   0  0  0  0  0  0  0  0  0  0  0  0
    2.2189   -2.5923   -2.5932 C   0  0  0  0  0  0  0  0  0  0  0  0
   -1.0491   -4.1894    1.3590 C   0  0  0  0  0  0  0  0  0  0  0  0
   -5.3335   -0.7157    1.3041 C   0  0  0  0  0  0  0  0  0  0  0  0
   -3.6409   -1.8332    2.6975 C   0  0  0  0  0  0  0  0  0  0  0  0
   -3.1975    1.0217    2.4182 H   0  0  0  0  0  0  0  0  0  0  0  0
    1.5016    4.0586   -1.1823 C   0  0  0  0  0  0  0  0  0  0  0  0
   -2.2929    5.5907    1.7988 C   0  0  0  0  0  0  0  0  0  0  0  0
   -3.0856   -1.3938    0.1799 C   0  0  2  0  0  0  0  0  0  0  0  0
    1.1745   -2.6133   -1.5149 C   0  0  0  0  0  0  0  0  0  0  0  0
    0.3776   -1.6003   -1.0409 C   0  0  0  0  0  0  0  0  0  0  0  0
   -0.3752   -3.3772    0.2967 C   0  0  0  0  0  0  0  0  0  0  0  0
   -0.5361   -2.0440   -0.0039 C   0  0  0  0  0  0  0  0  0  0  0  0
   -2.9983    0.3766    1.5497 C   0  0  2  0  0  0  0  0  0  0  0  0
   -3.2757    1.0370    0.1699 C   0  0  0  0  0  0  0  0  0  0  0  0
   -3.3655   -0.1888   -0.7673 C   0  0  0  0  0  0  0  0  0  0  0  0
   -0.3150    2.3331    1.6973 C   0  0  0  0  0  0  0  0  0  0  0  0
   -1.2167    3.3276    2.0790 C   0  0  0  0  0  0  0  0  0  0  0  0
   -1.2843    4.5483    1.3917 C   0  0  0  0  0  0  0  0  0  0  0  0
    0.5395    3.8014   -0.0505 C   0  0  0  0  0  0  0  0  0  0  0  0
    0.5643    2.5870    0.6355 C   0  0  0  0  0  0  0  0  0  0  0  0
   -0.4021    4.7665    0.3335 C   0  0  0  0  0  0  0  0  0  0  0  0
   -1.6054   -1.2124    0.6063 C   0  0  0  0  0  0  0  0  0  0  0  0
   -1.5688   -0.1593    1.4571 C   0  0  0  0  0  0  0  0  0  0  0  0
    0.8513   -4.0926   -0.6818 S   0  0  0  0  0  0  0  0  0  0  0  0
   -0.4132    0.7089    2.5857 P   0  0  0  0  0  0  0  0  0  0  0  0
   -3.8277   -0.9290    1.4778 C   0  0  0  0  0  0  0  0  0  0  0  0
    0.4244   -0.1720   -1.5453 C   0  0  0  0  0  0  0  0  0  0  0  0
    1.8498    0.3221   -1.8064 C   0  0  0  0  0  0  0  0  0  0  0  0
   -0.5124    0.1001   -2.7111 C   0  0  0  0  0  0  0  0  0  0  0  0
    2.2261    0.9816   -2.9800 C   0  0  0  0  0  0  0  0  0  0  0  0
    3.5336    1.4435   -3.1521 C   0  0  0  0  0  0  0  0  0  0  0  0
    4.4843    1.2605   -2.1515 C   0  0  0  0  0  0  0  0  0  0  0  0
    4.1201    0.5975   -0.9771 C   0  0  0  0  0  0  0  0  0  0  0  0
    2.8194    0.1298   -0.8117 C   0  0  0  0  0  0  0  0  0  0  0  0
   -1.0054    1.4007   -2.8857 C   0  0  0  0  0  0  0  0  0  0  0  0
   -1.8781    1.6986   -3.9283 C   0  0  0  0  0  0  0  0  0  0  0  0
   -2.2712    0.6967   -4.8181 C   0  0  0  0  0  0  0  0  0  0  0  0
   -1.7837   -0.5977   -4.6548 C   0  0  0  0  0  0  0  0  0  0  0  0
   -0.9094   -0.8944   -3.6067 C   0  0  0  0  0  0  0  0  0  0  0  0
    1.2704    0.0023    2.4119 C   0  0  0  0  0  0  0  0  0  0  0  0
    1.4534   -1.3876    2.3852 C   0  0  0  0  0  0  0  0  0  0  0  0
    2.7319   -1.9483    2.3804 C   0  0  0  0  0  0  0  0  0  0  0  0
    3.8401   -1.0928    2.4449 C   0  0  0  0  0  0  0  0  0  0  0  0
    3.6881    0.2915    2.5325 C   0  0  0  0  0  0  0  0  0  0  0  0
    2.3951    0.8270    2.5177 C   0  0  0  0  0  0  0  0  0  0  0  0
    2.9281   -3.4388    2.2892 C   0  0  0  0  0  0  0  0  0  0  0  0
    4.8793    1.2087    2.6368 C   0  0  0  0  0  0  0  0  0  0  0  0
   -2.8723   -2.9420   -1.3182 H   0  0  0  0  0  0  0  0  0  0  0  0
   -4.5373   -2.6888   -0.7445 H   0  0  0  0  0  0  0  0  0  0  0  0
   -3.3691   -3.5607    0.2734 H   0  0  0  0  0  0  0  0  0  0  0  0
    3.1886   -2.2404   -2.2081 H   0  0  0  0  0  0  0  0  0  0  0  0
    1.9282   -1.9137   -3.4064 H   0  0  0  0  0  0  0  0  0  0  0  0
    2.3592   -3.5962   -3.0171 H   0  0  0  0  0  0  0  0  0  0  0  0
   -1.7865   -3.5744    1.8882 H   0  0  0  0  0  0  0  0  0  0  0  0
   -0.3224   -4.5577    2.1005 H   0  0  0  0  0  0  0  0  0  0  0  0
   -1.5639   -5.0670    0.9397 H   0  0  0  0  0  0  0  0  0  0  0  0
   -5.8428   -1.6866    1.2000 H   0  0  0  0  0  0  0  0  0  0  0  0
   -5.7450   -0.2263    2.2002 H   0  0  0  0  0  0  0  0  0  0  0  0
   -5.6015   -0.1020    0.4364 H   0  0  0  0  0  0  0  0  0  0  0  0
   -4.0506   -2.8376    2.5035 H   0  0  0  0  0  0  0  0  0  0  0  0
   -4.1912   -1.4188    3.5558 H   0  0  0  0  0  0  0  0  0  0  0  0
   -2.5906   -1.9330    2.9970 H   0  0  0  0  0  0  0  0  0  0  0  0
    1.9263    5.0706   -1.1171 H   0  0  0  0  0  0  0  0  0  0  0  0
    2.3248    3.3300   -1.1765 H   0  0  0  0  0  0  0  0  0  0  0  0
    0.9984    3.9765   -2.1594 H   0  0  0  0  0  0  0  0  0  0  0  0
   -2.1096    6.5457    1.2896 H   0  0  0  0  0  0  0  0  0  0  0  0
   -2.2634    5.7669    2.8834 H   0  0  0  0  0  0  0  0  0  0  0  0
   -3.3137    5.2643    1.5479 H   0  0  0  0  0  0  0  0  0  0  0  0
   -4.2113    1.6146    0.1876 H   0  0  0  0  0  0  0  0  0  0  0  0
   -2.4657    1.7287   -0.1050 H   0  0  0  0  0  0  0  0  0  0  0  0
   -2.6458   -0.1627   -1.5908 H   0  0  0  0  0  0  0  0  0  0  0  0
   -4.3619   -0.2917   -1.2217 H   0  0  0  0  0  0  0  0  0  0  0  0
   -1.8846    3.1535    2.9279 H   0  0  0  0  0  0  0  0  0  0  0  0
    1.3048    1.8405    0.3444 H   0  0  0  0  0  0  0  0  0  0  0  0
   -0.4329    5.7220   -0.1983 H   0  0  0  0  0  0  0  0  0  0  0  0
    0.0423    0.4453   -0.7137 H   0  0  0  0  0  0  0  0  0  0  0  0
    1.4966    1.1348   -3.7765 H   0  0  0  0  0  0  0  0  0  0  0  0
    3.8056    1.9526   -4.0784 H   0  0  0  0  0  0  0  0  0  0  0  0
    5.5040    1.6247   -2.2862 H   0  0  0  0  0  0  0  0  0  0  0  0
    4.8520    0.4328   -0.1834 H   0  0  0  0  0  0  0  0  0  0  0  0
    2.5505   -0.4103    0.0985 H   0  0  0  0  0  0  0  0  0  0  0  0
   -0.7106    2.1789   -2.1747 H   0  0  0  0  0  0  0  0  0  0  0  0
   -2.2626    2.7135   -4.0419 H   0  0  0  0  0  0  0  0  0  0  0  0
   -2.9606    0.9251   -5.6324 H   0  0  0  0  0  0  0  0  0  0  0  0
   -2.0914   -1.3880   -5.3415 H   0  0  0  0  0  0  0  0  0  0  0  0
   -0.5545   -1.9174   -3.4659 H   0  0  0  0  0  0  0  0  0  0  0  0
    0.5844   -2.0472    2.3626 H   0  0  0  0  0  0  0  0  0  0  0  0
    4.8465   -1.5216    2.4410 H   0  0  0  0  0  0  0  0  0  0  0  0
    2.2743    1.9117    2.5778 H   0  0  0  0  0  0  0  0  0  0  0  0
    3.2307   -3.7295    1.2716 H   0  0  0  0  0  0  0  0  0  0  0  0
    3.7082   -3.7798    2.9846 H   0  0  0  0  0  0  0  0  0  0  0  0
    1.9985   -3.9768    2.5186 H   0  0  0  0  0  0  0  0  0  0  0  0
    4.8125    2.0215    1.8986 H   0  0  0  0  0  0  0  0  0  0  0  0
    5.8195    0.6660    2.4696 H   0  0  0  0  0  0  0  0  0  0  0  0
    4.9309    1.6733    3.6332 H   0  0  0  0  0  0  0  0  0  0  0  0
  1 49  1  0  0  0  0
  1 50  1  0  0  0  0
  1 51  1  0  0  0  0
  2 10  1  0  0  0  0
  2 52  1  0  0  0  0
  2 53  1  0  0  0  0
  2 54  1  0  0  0  0
  3 12  1  0  0  0  0
  3 55  1  0  0  0  0
  3 56  1  0  0  0  0
  3 57  1  0  0  0  0
  4 27  1  0  0  0  0
  4 58  1  0  0  0  0
  4 59  1  0  0  0  0
  4 60  1  0  0  0  0
  5 27  1  0  0  0  0
  5 61  1  0  0  0  0
  5 62  1  0  0  0  0
  5 63  1  0  0  0  0
  7 20  1  0  0  0  0
  7 64  1  0  0  0  0
  7 65  1  0  0  0  0
  7 66  1  0  0  0  0
  8 19  1  0  0  0  0
  8 67  1  0  0  0  0
  8 68  1  0  0  0  0
  8 69  1  0  0  0  0
  9  1  1  6  0  0  0
  9 16  1  0  0  0  0
  9 23  1  0  0  0  0
  9 27  1  0  0  0  0
 10 11  2  0  0  0  0
 10 25  1  0  0  0  0
 11 13  1  0  0  0  0
 11 28  1  0  0  0  0
 12 13  2  0  0  0  0
 12 25  1  0  0  0  0
 13 23  1  0  0  0  0
 14  6  1  1  0  0  0
 14 15  1  0  0  0  0
 14 24  1  0  0  0  0
 14 27  1  0  0  0  0
 15 16  1  0  0  0  0
 15 70  1  0  0  0  0
 15 71  1  0  0  0  0
 16 72  1  0  0  0  0
 16 73  1  0  0  0  0
 17 18  2  0  0  0  0
 17 21  1  0  0  0  0
 17 26  1  0  0  0  0
 18 19  1  0  0  0  0
 18 74  1  0  0  0  0
 19 22  2  0  0  0  0
 20 21  2  0  0  0  0
 20 22  1  0  0  0  0
 21 75  1  0  0  0  0
 22 76  1  0  0  0  0
 23 24  2  0  0  0  0
 24 26  1  0  0  0  0
 26 41  1  0  0  0  0
 28 29  1  0  0  0  0
 28 30  1  0  0  0  0
 28 77  1  0  0  0  0
 29 31  2  0  0  0  0
 29 35  1  0  0  0  0
 30 36  2  0  0  0  0
 30 40  1  0  0  0  0
 31 32  1  0  0  0  0
 31 78  1  0  0  0  0
 32 33  2  0  0  0  0
 32 79  1  0  0  0  0
 33 34  1  0  0  0  0
 33 80  1  0  0  0  0
 34 35  2  0  0  0  0
 34 81  1  0  0  0  0
 35 82  1  0  0  0  0
 36 37  1  0  0  0  0
 36 83  1  0  0  0  0
 37 38  2  0  0  0  0
 37 84  1  0  0  0  0
 38 39  1  0  0  0  0
 38 85  1  0  0  0  0
 39 40  2  0  0  0  0
 39 86  1  0  0  0  0
 40 87  1  0  0  0  0
 41 42  2  0  0  0  0
 41 46  1  0  0  0  0
 42 43  1  0  0  0  0
 42 88  1  0  0  0  0
 43 44  2  0  0  0  0
 43 47  1  0  0  0  0
 44 45  1  0  0  0  0
 44 89  1  0  0  0  0
 45 46  2  0  0  0  0
 45 48  1  0  0  0  0
 46 90  1  0  0  0  0
 47 91  1  0  0  0  0
 47 92  1  0  0  0  0
 47 93  1  0  0  0  0
 48 94  1  0  0  0  0
 48 95  1  0  0  0  0
 48 96  1  0  0  0  0
M  END
$$$$
