Title Card Required
 OpenBabel03192317523D

 42 44  0  0  1  0  0  0  0  0999 V2000
   -0.3791   -0.5804   -0.0943 N   0  0  0  0  0  0  0  0  0  0  0  0
   -0.9924   -1.6426    0.5339 C   0  0  0  0  0  0  0  0  0  0  0  0
   -0.2287   -2.7298    1.5343 S   0  0  0  0  0  0  0  0  0  0  0  0
   -2.3208   -1.7279    0.2888 N   0  0  0  0  0  0  0  0  0  0  0  0
   -3.0984   -0.9260   -0.6173 C   0  0  1  0  0  0  0  0  0  0  0  0
   -4.3896   -1.6614   -1.0573 C   0  0  2  0  0  0  0  0  0  0  0  0
   -5.2810   -0.5209   -1.5754 C   0  0  0  0  0  0  0  0  0  0  0  0
   -4.9099    0.6232   -0.6566 C   0  0  0  0  0  0  0  0  0  0  0  0
   -5.6228    1.7726   -0.3306 C   0  0  0  0  0  0  0  0  0  0  0  0
   -5.0751    2.6687    0.5917 C   0  0  0  0  0  0  0  0  0  0  0  0
   -3.8409    2.4101    1.1906 C   0  0  0  0  0  0  0  0  0  0  0  0
   -3.1227    1.2556    0.8650 C   0  0  0  0  0  0  0  0  0  0  0  0
   -3.6604    0.3801   -0.0733 C   0  0  0  0  0  0  0  0  0  0  0  0
   -4.9628   -2.3273    0.0381 O   0  0  0  0  0  0  0  0  0  0  0  0
    0.9822   -0.2352   -0.0827 C   0  0  0  0  0  0  0  0  0  0  0  0
    2.0051   -1.1935   -0.1647 C   0  0  0  0  0  0  0  0  0  0  0  0
    3.3269   -0.7750   -0.2031 C   0  0  0  0  0  0  0  0  0  0  0  0
    3.6717    0.5791   -0.1722 C   0  0  0  0  0  0  0  0  0  0  0  0
    2.6524    1.5163   -0.1038 C   0  0  0  0  0  0  0  0  0  0  0  0
    1.3156    1.1186   -0.0541 C   0  0  0  0  0  0  0  0  0  0  0  0
    2.9543    2.9903   -0.0468 C   0  0  0  0  0  0  0  0  0  0  0  0
    4.2500    3.2426   -0.2160 F   0  0  0  0  0  0  0  0  0  0  0  0
    2.2818    3.6584   -0.9880 F   0  0  0  0  0  0  0  0  0  0  0  0
    2.5914    3.5127    1.1272 F   0  0  0  0  0  0  0  0  0  0  0  0
    4.4434   -1.7841   -0.2882 C   0  0  0  0  0  0  0  0  0  0  0  0
    3.9906   -3.0261   -0.4368 F   0  0  0  0  0  0  0  0  0  0  0  0
    5.2480   -1.5186   -1.3211 F   0  0  0  0  0  0  0  0  0  0  0  0
    5.2027   -1.7571    0.8089 F   0  0  0  0  0  0  0  0  0  0  0  0
   -0.9866    0.1562   -0.4374 H   0  0  0  0  0  0  0  0  0  0  0  0
   -2.8142   -2.4687    0.7795 H   0  0  0  0  0  0  0  0  0  0  0  0
   -2.5038   -0.7204   -1.5267 H   0  0  0  0  0  0  0  0  0  0  0  0
   -4.1821   -2.4313   -1.8116 H   0  0  0  0  0  0  0  0  0  0  0  0
   -5.0286   -0.2816   -2.6216 H   0  0  0  0  0  0  0  0  0  0  0  0
   -6.3440   -0.7977   -1.5407 H   0  0  0  0  0  0  0  0  0  0  0  0
   -6.6007    1.9659   -0.7760 H   0  0  0  0  0  0  0  0  0  0  0  0
   -5.6264    3.5710    0.8602 H   0  0  0  0  0  0  0  0  0  0  0  0
   -3.4397    3.1077    1.9271 H   0  0  0  0  0  0  0  0  0  0  0  0
   -2.1727    1.0377    1.3606 H   0  0  0  0  0  0  0  0  0  0  0  0
   -5.2758   -1.6630    0.6680 H   0  0  0  0  0  0  0  0  0  0  0  0
    1.7604   -2.2524   -0.1974 H   0  0  0  0  0  0  0  0  0  0  0  0
    4.7155    0.8925   -0.2088 H   0  0  0  0  0  0  0  0  0  0  0  0
    0.5288    1.8743    0.0116 H   0  0  0  0  0  0  0  0  0  0  0  0
  1  2  1  0  0  0  0
  1 15  1  0  0  0  0
  1 29  1  0  0  0  0
  2  3  2  0  0  0  0
  2  4  1  0  0  0  0
  4  5  1  0  0  0  0
  4 30  1  0  0  0  0
  5  6  1  0  0  0  0
  5 13  1  0  0  0  0
  5 31  1  6  0  0  0
  6  7  1  0  0  0  0
  6 14  1  0  0  0  0
  6 32  1  6  0  0  0
  7  8  1  0  0  0  0
  7 33  1  0  0  0  0
  7 34  1  0  0  0  0
  8  9  2  0  0  0  0
  8 13  1  0  0  0  0
  9 10  1  0  0  0  0
  9 35  1  0  0  0  0
 10 11  2  0  0  0  0
 10 36  1  0  0  0  0
 11 12  1  0  0  0  0
 11 37  1  0  0  0  0
 12 13  2  0  0  0  0
 12 38  1  0  0  0  0
 14 39  1  0  0  0  0
 15 16  2  0  0  0  0
 15 20  1  0  0  0  0
 16 17  1  0  0  0  0
 16 40  1  0  0  0  0
 17 18  2  0  0  0  0
 17 25  1  0  0  0  0
 18 19  1  0  0  0  0
 18 41  1  0  0  0  0
 19 20  2  0  0  0  0
 19 21  1  0  0  0  0
 20 42  1  0  0  0  0
 21 22  1  0  0  0  0
 21 23  1  0  0  0  0
 21 24  1  0  0  0  0
 25 26  1  0  0  0  0
 25 27  1  0  0  0  0
 25 28  1  0  0  0  0
M  END
$$$$
