Title Card Required
 OpenBabel03192317543D

 78 86  0  0  0  0  0  0  0  0999 V2000
    1.0301    0.0726   -0.4444 O   0  0  0  0  0  0  0  0  0  0  0  0
   -0.2589   -0.8033   -0.0238 P   0  0  0  0  0  0  0  0  0  0  0  0
   -1.1745    0.2913    0.7328 O   0  0  0  0  0  0  0  0  0  0  0  0
   -1.5591    1.3667   -0.0499 C   0  0  0  0  0  0  0  0  0  0  0  0
   -0.6340    2.3633   -0.2738 C   0  0  0  0  0  0  0  0  0  0  0  0
    0.6971    2.2925    0.3920 C   0  0  0  0  0  0  0  0  0  0  0  0
    1.4954    1.1704    0.2500 C   0  0  0  0  0  0  0  0  0  0  0  0
   -2.8632    1.3502   -0.6202 C   0  0  0  0  0  0  0  0  0  0  0  0
   -3.2007    2.3992   -1.4445 C   0  0  0  0  0  0  0  0  0  0  0  0
   -2.2819    3.4354   -1.7557 C   0  0  0  0  0  0  0  0  0  0  0  0
   -2.6398    4.4814   -2.6501 C   0  0  0  0  0  0  0  0  0  0  0  0
   -1.7343    5.4531   -2.9947 C   0  0  0  0  0  0  0  0  0  0  0  0
   -0.4224    5.4128   -2.4650 C   0  0  0  0  0  0  0  0  0  0  0  0
   -0.0512    4.4241   -1.5857 C   0  0  0  0  0  0  0  0  0  0  0  0
   -0.9746    3.4180   -1.1879 C   0  0  0  0  0  0  0  0  0  0  0  0
    2.8482    1.1286    0.7054 C   0  0  0  0  0  0  0  0  0  0  0  0
    3.3296    2.2244    1.3855 C   0  0  0  0  0  0  0  0  0  0  0  0
    2.5170    3.3493    1.6748 C   0  0  0  0  0  0  0  0  0  0  0  0
    3.0103    4.4325    2.4523 C   0  0  0  0  0  0  0  0  0  0  0  0
    2.2077    5.5046    2.7512 C   0  0  0  0  0  0  0  0  0  0  0  0
    0.8692    5.5322    2.2900 C   0  0  0  0  0  0  0  0  0  0  0  0
    0.3686    4.5043    1.5277 C   0  0  0  0  0  0  0  0  0  0  0  0
    1.1815    3.3875    1.1852 C   0  0  0  0  0  0  0  0  0  0  0  0
    0.2059   -1.6767    1.2333 O   0  0  0  0  0  0  0  0  0  0  0  0
    5.5928   -2.0972   -0.1292 C   0  0  0  0  0  0  0  0  0  0  0  0
    5.9075   -0.7687   -0.4426 C   0  0  0  0  0  0  0  0  0  0  0  0
    5.0062    0.2584   -0.1815 C   0  0  0  0  0  0  0  0  0  0  0  0
    3.7591   -0.0068    0.3988 C   0  0  0  0  0  0  0  0  0  0  0  0
    3.4396   -1.3340    0.7103 C   0  0  0  0  0  0  0  0  0  0  0  0
    4.3438   -2.3586    0.4513 C   0  0  0  0  0  0  0  0  0  0  0  0
    6.5559   -3.1956   -0.3975 C   0  0  0  0  0  0  0  0  0  0  0  0
    7.9320   -3.0044   -0.2085 C   0  0  0  0  0  0  0  0  0  0  0  0
    8.8356   -4.0356   -0.4530 C   0  0  0  0  0  0  0  0  0  0  0  0
    8.3801   -5.2784   -0.8917 C   0  0  0  0  0  0  0  0  0  0  0  0
    7.0141   -5.4808   -1.0853 C   0  0  0  0  0  0  0  0  0  0  0  0
    6.1109   -4.4492   -0.8404 C   0  0  0  0  0  0  0  0  0  0  0  0
   -5.6500   -1.8539    0.1275 C   0  0  0  0  0  0  0  0  0  0  0  0
   -4.9377   -1.2643    1.1817 C   0  0  0  0  0  0  0  0  0  0  0  0
   -4.0265   -0.2409    0.9480 C   0  0  0  0  0  0  0  0  0  0  0  0
   -3.8055    0.2352   -0.3515 C   0  0  0  0  0  0  0  0  0  0  0  0
   -4.5129   -0.3526   -1.4065 C   0  0  0  0  0  0  0  0  0  0  0  0
   -5.4199   -1.3805   -1.1706 C   0  0  0  0  0  0  0  0  0  0  0  0
   -6.6176   -2.9524    0.3788 C   0  0  0  0  0  0  0  0  0  0  0  0
   -7.4350   -2.9433    1.5180 C   0  0  0  0  0  0  0  0  0  0  0  0
   -8.3458   -3.9712    1.7504 C   0  0  0  0  0  0  0  0  0  0  0  0
   -8.4557   -5.0286    0.8481 C   0  0  0  0  0  0  0  0  0  0  0  0
   -7.6466   -5.0506   -0.2874 C   0  0  0  0  0  0  0  0  0  0  0  0
   -6.7364   -4.0223   -0.5196 C   0  0  0  0  0  0  0  0  0  0  0  0
   -0.8407   -1.5524   -1.1358 O   0  0  0  0  0  0  0  0  0  0  0  0
   -4.2013    2.4349   -1.8812 H   0  0  0  0  0  0  0  0  0  0  0  0
   -3.6494    4.4877   -3.0658 H   0  0  0  0  0  0  0  0  0  0  0  0
   -2.0172    6.2485   -3.6853 H   0  0  0  0  0  0  0  0  0  0  0  0
    0.3036    6.1707   -2.7626 H   0  0  0  0  0  0  0  0  0  0  0  0
    0.9653    4.4001   -1.1938 H   0  0  0  0  0  0  0  0  0  0  0  0
    4.3616    2.2138    1.7430 H   0  0  0  0  0  0  0  0  0  0  0  0
    4.0395    4.3876    2.8141 H   0  0  0  0  0  0  0  0  0  0  0  0
    2.5922    6.3293    3.3526 H   0  0  0  0  0  0  0  0  0  0  0  0
    0.2264    6.3748    2.5487 H   0  0  0  0  0  0  0  0  0  0  0  0
   -0.6667    4.5344    1.1876 H   0  0  0  0  0  0  0  0  0  0  0  0
   -0.0277   -2.6062    1.0993 H   0  0  0  0  0  0  0  0  0  0  0  0
    6.8594   -0.5401   -0.9251 H   0  0  0  0  0  0  0  0  0  0  0  0
    5.2607    1.2845   -0.4545 H   0  0  0  0  0  0  0  0  0  0  0  0
    2.4863   -1.5590    1.1869 H   0  0  0  0  0  0  0  0  0  0  0  0
    4.0893   -3.3819    0.7341 H   0  0  0  0  0  0  0  0  0  0  0  0
    8.2943   -2.0423    0.1592 H   0  0  0  0  0  0  0  0  0  0  0  0
    9.9019   -3.8699   -0.2912 H   0  0  0  0  0  0  0  0  0  0  0  0
    9.0881   -6.0863   -1.0817 H   0  0  0  0  0  0  0  0  0  0  0  0
    6.6489   -6.4468   -1.4378 H   0  0  0  0  0  0  0  0  0  0  0  0
    5.0455   -4.6077   -1.0183 H   0  0  0  0  0  0  0  0  0  0  0  0
   -5.0837   -1.6310    2.1995 H   0  0  0  0  0  0  0  0  0  0  0  0
   -3.4755    0.1959    1.7818 H   0  0  0  0  0  0  0  0  0  0  0  0
   -4.3346   -0.0095   -2.4272 H   0  0  0  0  0  0  0  0  0  0  0  0
   -5.9693   -1.8158   -2.0073 H   0  0  0  0  0  0  0  0  0  0  0  0
   -7.3721   -2.1067    2.2165 H   0  0  0  0  0  0  0  0  0  0  0  0
   -8.9800   -3.9421    2.6380 H   0  0  0  0  0  0  0  0  0  0  0  0
   -9.1701   -5.8330    1.0291 H   0  0  0  0  0  0  0  0  0  0  0  0
   -7.7190   -5.8784   -0.9945 H   0  0  0  0  0  0  0  0  0  0  0  0
   -6.0891   -4.0588   -1.3979 H   0  0  0  0  0  0  0  0  0  0  0  0
  1  2  1  0  0  0  0
  1  7  1  0  0  0  0
  2  3  1  0  0  0  0
  2 24  1  0  0  0  0
  2 49  2  0  0  0  0
  3  4  1  0  0  0  0
  4  5  2  0  0  0  0
  4  8  1  0  0  0  0
  5  6  1  0  0  0  0
  5 15  1  0  0  0  0
  6  7  2  0  0  0  0
  6 23  1  0  0  0  0
  7 16  1  0  0  0  0
  8  9  2  0  0  0  0
  8 40  1  0  0  0  0
  9 10  1  0  0  0  0
  9 50  1  0  0  0  0
 10 11  2  0  0  0  0
 10 15  1  0  0  0  0
 11 12  1  0  0  0  0
 11 51  1  0  0  0  0
 12 13  2  0  0  0  0
 12 52  1  0  0  0  0
 13 14  1  0  0  0  0
 13 53  1  0  0  0  0
 14 15  2  0  0  0  0
 14 54  1  0  0  0  0
 16 17  2  0  0  0  0
 16 28  1  0  0  0  0
 17 18  1  0  0  0  0
 17 55  1  0  0  0  0
 18 19  2  0  0  0  0
 18 23  1  0  0  0  0
 19 20  1  0  0  0  0
 19 56  1  0  0  0  0
 20 21  2  0  0  0  0
 20 57  1  0  0  0  0
 21 22  1  0  0  0  0
 21 58  1  0  0  0  0
 22 23  2  0  0  0  0
 22 59  1  0  0  0  0
 24 60  1  0  0  0  0
 25 26  2  0  0  0  0
 25 30  1  0  0  0  0
 25 31  1  0  0  0  0
 26 27  1  0  0  0  0
 26 61  1  0  0  0  0
 27 28  2  0  0  0  0
 27 62  1  0  0  0  0
 28 29  1  0  0  0  0
 29 30  2  0  0  0  0
 29 63  1  0  0  0  0
 30 64  1  0  0  0  0
 31 32  2  0  0  0  0
 31 36  1  0  0  0  0
 32 33  1  0  0  0  0
 32 65  1  0  0  0  0
 33 34  2  0  0  0  0
 33 66  1  0  0  0  0
 34 35  1  0  0  0  0
 34 67  1  0  0  0  0
 35 36  2  0  0  0  0
 35 68  1  0  0  0  0
 36 69  1  0  0  0  0
 37 38  2  0  0  0  0
 37 42  1  0  0  0  0
 37 43  1  0  0  0  0
 38 39  1  0  0  0  0
 38 70  1  0  0  0  0
 39 40  2  0  0  0  0
 39 71  1  0  0  0  0
 40 41  1  0  0  0  0
 41 42  2  0  0  0  0
 41 72  1  0  0  0  0
 42 73  1  0  0  0  0
 43 44  2  0  0  0  0
 43 48  1  0  0  0  0
 44 45  1  0  0  0  0
 44 74  1  0  0  0  0
 45 46  2  0  0  0  0
 45 75  1  0  0  0  0
 46 47  1  0  0  0  0
 46 76  1  0  0  0  0
 47 48  2  0  0  0  0
 47 77  1  0  0  0  0
 48 78  1  0  0  0  0
M  END
$$$$
