Title Card Required
 OpenBabel03192317463D

 58 64  0  0  0  0  0  0  0  0999 V2000
    0.8771   -0.9522   -0.9873 O   0  0  0  0  0  0  0  0  0  0  0  0
    0.0076   -2.0336   -0.1384 P   0  0  0  0  0  0  0  0  0  0  0  0
   -0.7989   -1.0286    0.8561 O   0  0  0  0  0  0  0  0  0  0  0  0
   -1.4838    0.0200    0.2706 C   0  0  0  0  0  0  0  0  0  0  0  0
   -0.7632    1.1222   -0.1497 C   0  0  0  0  0  0  0  0  0  0  0  0
    0.7049    1.1565    0.0983 C   0  0  0  0  0  0  0  0  0  0  0  0
    1.4841    0.0987   -0.3340 C   0  0  0  0  0  0  0  0  0  0  0  0
   -2.8921   -0.1067    0.0985 C   0  0  0  0  0  0  0  0  0  0  0  0
   -3.5484    0.9372   -0.5149 C   0  0  0  0  0  0  0  0  0  0  0  0
   -2.8611    2.0761   -1.0073 C   0  0  0  0  0  0  0  0  0  0  0  0
   -3.5572    3.1156   -1.6842 C   0  0  0  0  0  0  0  0  0  0  0  0
   -2.8813    4.1878   -2.2098 C   0  0  0  0  0  0  0  0  0  0  0  0
   -1.4721    4.2612   -2.0898 C   0  0  0  0  0  0  0  0  0  0  0  0
   -0.7734    3.2804   -1.4281 C   0  0  0  0  0  0  0  0  0  0  0  0
   -1.4486    2.1701   -0.8489 C   0  0  0  0  0  0  0  0  0  0  0  0
    2.8923    0.0246   -0.1131 C   0  0  0  0  0  0  0  0  0  0  0  0
    3.4893    1.0868    0.5317 C   0  0  0  0  0  0  0  0  0  0  0  0
    2.7426    2.1908    1.0143 C   0  0  0  0  0  0  0  0  0  0  0  0
    3.3783    3.2551    1.7127 C   0  0  0  0  0  0  0  0  0  0  0  0
    2.6438    4.2885    2.2364 C   0  0  0  0  0  0  0  0  0  0  0  0
    1.2343    4.2946    2.0957 C   0  0  0  0  0  0  0  0  0  0  0  0
    0.5934    3.2892    1.4133 C   0  0  0  0  0  0  0  0  0  0  0  0
    1.3298    2.2200    0.8302 C   0  0  0  0  0  0  0  0  0  0  0  0
    3.6788   -1.1744   -0.5082 C   0  0  0  0  0  0  0  0  0  0  0  0
    3.4955   -1.8095   -1.7457 C   0  0  0  0  0  0  0  0  0  0  0  0
    4.2592   -2.9223   -2.0861 C   0  0  0  0  0  0  0  0  0  0  0  0
    5.2119   -3.4242   -1.1993 C   0  0  0  0  0  0  0  0  0  0  0  0
    5.4005   -2.8035    0.0337 C   0  0  0  0  0  0  0  0  0  0  0  0
    4.6390   -1.6879    0.3762 C   0  0  0  0  0  0  0  0  0  0  0  0
   -3.6251   -1.3242    0.5317 C   0  0  0  0  0  0  0  0  0  0  0  0
   -3.4187   -1.9019    1.7920 C   0  0  0  0  0  0  0  0  0  0  0  0
   -4.1523   -3.0187    2.1833 C   0  0  0  0  0  0  0  0  0  0  0  0
   -5.0951   -3.5795    1.3219 C   0  0  0  0  0  0  0  0  0  0  0  0
   -5.3006   -3.0174    0.0635 C   0  0  0  0  0  0  0  0  0  0  0  0
   -4.5698   -1.8986   -0.3282 C   0  0  0  0  0  0  0  0  0  0  0  0
    1.0292   -2.7202    0.8658 O   0  0  0  0  0  0  0  0  0  0  0  0
   -0.7688   -2.9385   -0.9737 O   0  0  0  0  0  0  0  0  0  0  0  0
   -4.6323    0.8850   -0.6388 H   0  0  0  0  0  0  0  0  0  0  0  0
   -4.6412    3.0354   -1.7867 H   0  0  0  0  0  0  0  0  0  0  0  0
   -3.4231    4.9770   -2.7328 H   0  0  0  0  0  0  0  0  0  0  0  0
   -0.9356    5.1007   -2.5343 H   0  0  0  0  0  0  0  0  0  0  0  0
    0.3123    3.3423   -1.3523 H   0  0  0  0  0  0  0  0  0  0  0  0
    4.5707    1.0791    0.6848 H   0  0  0  0  0  0  0  0  0  0  0  0
    4.4633    3.2261    1.8315 H   0  0  0  0  0  0  0  0  0  0  0  0
    3.1399    5.0986    2.7727 H   0  0  0  0  0  0  0  0  0  0  0  0
    0.6511    5.1030    2.5386 H   0  0  0  0  0  0  0  0  0  0  0  0
   -0.4922    3.3014    1.3206 H   0  0  0  0  0  0  0  0  0  0  0  0
    2.7527   -1.4252   -2.4441 H   0  0  0  0  0  0  0  0  0  0  0  0
    4.1064   -3.4030   -3.0534 H   0  0  0  0  0  0  0  0  0  0  0  0
    5.8025   -4.3013   -1.4677 H   0  0  0  0  0  0  0  0  0  0  0  0
    6.1369   -3.1934    0.7380 H   0  0  0  0  0  0  0  0  0  0  0  0
    4.7788   -1.2157    1.3513 H   0  0  0  0  0  0  0  0  0  0  0  0
   -2.6831   -1.4676    2.4698 H   0  0  0  0  0  0  0  0  0  0  0  0
   -3.9865   -3.4552    3.1695 H   0  0  0  0  0  0  0  0  0  0  0  0
   -5.6641   -4.4585    1.6287 H   0  0  0  0  0  0  0  0  0  0  0  0
   -6.0249   -3.4578   -0.6232 H   0  0  0  0  0  0  0  0  0  0  0  0
   -4.7117   -1.4755   -1.3245 H   0  0  0  0  0  0  0  0  0  0  0  0
    1.6474   -2.1155    1.3021 H   0  0  0  0  0  0  0  0  0  0  0  0
  1  2  1  0  0  0  0
  1  7  1  0  0  0  0
  2  3  1  0  0  0  0
  2 36  1  0  0  0  0
  2 37  2  0  0  0  0
  3  4  1  0  0  0  0
  4  5  2  0  0  0  0
  4  8  1  0  0  0  0
  5  6  1  0  0  0  0
  5 15  1  0  0  0  0
  6  7  2  0  0  0  0
  6 23  1  0  0  0  0
  7 16  1  0  0  0  0
  8  9  2  0  0  0  0
  8 30  1  0  0  0  0
  9 10  1  0  0  0  0
  9 38  1  0  0  0  0
 10 11  2  0  0  0  0
 10 15  1  0  0  0  0
 11 12  1  0  0  0  0
 11 39  1  0  0  0  0
 12 13  2  0  0  0  0
 12 40  1  0  0  0  0
 13 14  1  0  0  0  0
 13 41  1  0  0  0  0
 14 15  2  0  0  0  0
 14 42  1  0  0  0  0
 16 17  2  0  0  0  0
 16 24  1  0  0  0  0
 17 18  1  0  0  0  0
 17 43  1  0  0  0  0
 18 19  2  0  0  0  0
 18 23  1  0  0  0  0
 19 20  1  0  0  0  0
 19 44  1  0  0  0  0
 20 21  2  0  0  0  0
 20 45  1  0  0  0  0
 21 22  1  0  0  0  0
 21 46  1  0  0  0  0
 22 23  2  0  0  0  0
 22 47  1  0  0  0  0
 24 25  2  0  0  0  0
 24 29  1  0  0  0  0
 25 26  1  0  0  0  0
 25 48  1  0  0  0  0
 26 27  2  0  0  0  0
 26 49  1  0  0  0  0
 27 28  1  0  0  0  0
 27 50  1  0  0  0  0
 28 29  2  0  0  0  0
 28 51  1  0  0  0  0
 29 52  1  0  0  0  0
 30 31  2  0  0  0  0
 30 35  1  0  0  0  0
 31 32  1  0  0  0  0
 31 53  1  0  0  0  0
 32 33  2  0  0  0  0
 32 54  1  0  0  0  0
 33 34  1  0  0  0  0
 33 55  1  0  0  0  0
 34 35  2  0  0  0  0
 34 56  1  0  0  0  0
 35 57  1  0  0  0  0
 36 58  1  0  0  0  0
M  END
$$$$
