Title Card Required
 OpenBabel03192317483D

 73 78  0  0  1  0  0  0  0  0999 V2000
   -2.0755   -1.9530    0.5074 O   0  0  0  0  0  0  0  0  0  0  0  0
   -1.3227   -1.9062   -0.6127 C   0  0  0  0  0  0  0  0  0  0  0  0
   -1.8284   -1.4082   -1.6595 N   0  0  0  0  0  0  0  0  0  0  0  0
   -3.1554   -0.9093   -1.3059 C   0  0  1  0  0  0  0  0  0  0  0  0
   -3.3710   -1.4507    0.1657 C   0  0  2  0  0  0  0  0  0  0  0  0
    0.0803   -2.4520   -0.4746 C   0  0  0  0  0  0  0  0  0  0  0  0
    2.6552   -0.6554    1.3855 C   0  0  1  0  0  0  0  0  0  0  0  0
    1.5806    0.4783    1.1691 C   0  0  2  0  0  0  0  0  0  0  0  0
    0.4494   -0.2478    0.6040 N   0  0  0  0  0  0  0  0  0  0  0  0
    0.8644   -1.4001    0.2724 C   0  0  0  0  0  0  0  0  0  0  0  0
    2.1411   -1.7201    0.5759 O   0  0  0  0  0  0  0  0  0  0  0  0
    2.0307    1.6068    0.2607 C   0  0  0  0  0  0  0  0  0  0  0  0
    0.0645   -3.7545    0.3538 C   0  0  0  0  0  0  0  0  0  0  0  0
    0.6825   -2.6387   -1.8908 C   0  0  0  0  0  0  0  0  0  0  0  0
    1.9888   -3.4215   -1.9641 C   0  0  0  0  0  0  0  0  0  0  0  0
   -0.7693   -4.8586   -0.2834 C   0  0  0  0  0  0  0  0  0  0  0  0
   -3.2444    0.5954   -1.4542 C   0  0  0  0  0  0  0  0  0  0  0  0
    4.0705   -0.3188    1.0163 C   0  0  0  0  0  0  0  0  0  0  0  0
   -3.8481   -0.4536    1.1844 C   0  0  0  0  0  0  0  0  0  0  0  0
    4.9643    0.0906    2.0067 C   0  0  0  0  0  0  0  0  0  0  0  0
    6.2485    0.5159    1.6671 C   0  0  0  0  0  0  0  0  0  0  0  0
    6.6477    0.5249    0.3326 C   0  0  0  0  0  0  0  0  0  0  0  0
    5.7625    0.1001   -0.6597 C   0  0  0  0  0  0  0  0  0  0  0  0
    4.4801   -0.3206   -0.3205 C   0  0  0  0  0  0  0  0  0  0  0  0
    1.7067    1.6287   -1.0978 C   0  0  0  0  0  0  0  0  0  0  0  0
    2.2101    2.6329   -1.9268 C   0  0  0  0  0  0  0  0  0  0  0  0
    3.0451    3.6191   -1.4076 C   0  0  0  0  0  0  0  0  0  0  0  0
    3.3638    3.6093   -0.0487 C   0  0  0  0  0  0  0  0  0  0  0  0
    2.8525    2.6139    0.7785 C   0  0  0  0  0  0  0  0  0  0  0  0
   -4.4505    1.1904   -1.8294 C   0  0  0  0  0  0  0  0  0  0  0  0
   -4.5627    2.5778   -1.9100 C   0  0  0  0  0  0  0  0  0  0  0  0
   -3.4619    3.3835   -1.6231 C   0  0  0  0  0  0  0  0  0  0  0  0
   -2.2530    2.7951   -1.2515 C   0  0  0  0  0  0  0  0  0  0  0  0
   -2.1447    1.4087   -1.1648 C   0  0  0  0  0  0  0  0  0  0  0  0
   -2.9368    0.3756    1.8445 C   0  0  0  0  0  0  0  0  0  0  0  0
   -3.3983    1.3493    2.7274 C   0  0  0  0  0  0  0  0  0  0  0  0
   -4.7661    1.5024    2.9572 C   0  0  0  0  0  0  0  0  0  0  0  0
   -5.6752    0.6718    2.3049 C   0  0  0  0  0  0  0  0  0  0  0  0
   -5.2154   -0.3064    1.4243 C   0  0  0  0  0  0  0  0  0  0  0  0
   -3.9064   -1.3608   -1.9705 H   0  0  0  0  0  0  0  0  0  0  0  0
   -4.0623   -2.3080    0.1387 H   0  0  0  0  0  0  0  0  0  0  0  0
    2.6148   -0.9928    2.4334 H   0  0  0  0  0  0  0  0  0  0  0  0
    1.3058    0.9074    2.1436 H   0  0  0  0  0  0  0  0  0  0  0  0
    1.1046   -4.0808    0.4954 H   0  0  0  0  0  0  0  0  0  0  0  0
   -0.3370   -3.5167    1.3498 H   0  0  0  0  0  0  0  0  0  0  0  0
   -0.0867   -3.1275   -2.5054 H   0  0  0  0  0  0  0  0  0  0  0  0
    0.8016   -1.6393   -2.3365 H   0  0  0  0  0  0  0  0  0  0  0  0
    1.8565   -4.4640   -1.6398 H   0  0  0  0  0  0  0  0  0  0  0  0
    2.3453   -3.4467   -3.0032 H   0  0  0  0  0  0  0  0  0  0  0  0
    2.7744   -2.9755   -1.3409 H   0  0  0  0  0  0  0  0  0  0  0  0
   -0.3790   -5.1502   -1.2692 H   0  0  0  0  0  0  0  0  0  0  0  0
   -0.7733   -5.7543    0.3525 H   0  0  0  0  0  0  0  0  0  0  0  0
   -1.8143   -4.5388   -0.4134 H   0  0  0  0  0  0  0  0  0  0  0  0
    4.6518    0.0809    3.0542 H   0  0  0  0  0  0  0  0  0  0  0  0
    6.9396    0.8359    2.4484 H   0  0  0  0  0  0  0  0  0  0  0  0
    7.6519    0.8562    0.0638 H   0  0  0  0  0  0  0  0  0  0  0  0
    6.0729    0.1006   -1.7057 H   0  0  0  0  0  0  0  0  0  0  0  0
    3.7826   -0.6459   -1.0949 H   0  0  0  0  0  0  0  0  0  0  0  0
    1.0508    0.8593   -1.5097 H   0  0  0  0  0  0  0  0  0  0  0  0
    1.9454    2.6406   -2.9854 H   0  0  0  0  0  0  0  0  0  0  0  0
    3.4424    4.3995   -2.0584 H   0  0  0  0  0  0  0  0  0  0  0  0
    4.0130    4.3811    0.3677 H   0  0  0  0  0  0  0  0  0  0  0  0
    3.1082    2.6076    1.8412 H   0  0  0  0  0  0  0  0  0  0  0  0
   -5.3144    0.5613   -2.0599 H   0  0  0  0  0  0  0  0  0  0  0  0
   -5.5114    3.0302   -2.2036 H   0  0  0  0  0  0  0  0  0  0  0  0
   -3.5467    4.4695   -1.6891 H   0  0  0  0  0  0  0  0  0  0  0  0
   -1.3851    3.4163   -1.0218 H   0  0  0  0  0  0  0  0  0  0  0  0
   -1.2061    0.9494   -0.8470 H   0  0  0  0  0  0  0  0  0  0  0  0
   -1.8688    0.2511    1.6487 H   0  0  0  0  0  0  0  0  0  0  0  0
   -2.6844    1.9983    3.2372 H   0  0  0  0  0  0  0  0  0  0  0  0
   -5.1237    2.2677    3.6479 H   0  0  0  0  0  0  0  0  0  0  0  0
   -6.7456    0.7816    2.4856 H   0  0  0  0  0  0  0  0  0  0  0  0
   -5.9282   -0.9615    0.9167 H   0  0  0  0  0  0  0  0  0  0  0  0
  1  2  1  0  0  0  0
  1  5  1  0  0  0  0
  2  3  2  0  0  0  0
  2  6  1  0  0  0  0
  3  4  1  0  0  0  0
  4  5  1  0  0  0  0
  4 17  1  0  0  0  0
  4 40  1  6  0  0  0
  5 19  1  0  0  0  0
  5 41  1  6  0  0  0
  6 10  1  0  0  0  0
  6 13  1  0  0  0  0
  6 14  1  0  0  0  0
  7  8  1  0  0  0  0
  7 11  1  0  0  0  0
  7 18  1  0  0  0  0
  7 42  1  1  0  0  0
  8  9  1  0  0  0  0
  8 12  1  0  0  0  0
  8 43  1  1  0  0  0
  9 10  2  0  0  0  0
 10 11  1  0  0  0  0
 12 25  2  0  0  0  0
 12 29  1  0  0  0  0
 13 16  1  0  0  0  0
 13 44  1  0  0  0  0
 13 45  1  0  0  0  0
 14 15  1  0  0  0  0
 14 46  1  0  0  0  0
 14 47  1  0  0  0  0
 15 48  1  0  0  0  0
 15 49  1  0  0  0  0
 15 50  1  0  0  0  0
 16 51  1  0  0  0  0
 16 52  1  0  0  0  0
 16 53  1  0  0  0  0
 17 30  2  0  0  0  0
 17 34  1  0  0  0  0
 18 20  2  0  0  0  0
 18 24  1  0  0  0  0
 19 35  2  0  0  0  0
 19 39  1  0  0  0  0
 20 21  1  0  0  0  0
 20 54  1  0  0  0  0
 21 22  2  0  0  0  0
 21 55  1  0  0  0  0
 22 23  1  0  0  0  0
 22 56  1  0  0  0  0
 23 24  2  0  0  0  0
 23 57  1  0  0  0  0
 24 58  1  0  0  0  0
 25 26  1  0  0  0  0
 25 59  1  0  0  0  0
 26 27  2  0  0  0  0
 26 60  1  0  0  0  0
 27 28  1  0  0  0  0
 27 61  1  0  0  0  0
 28 29  2  0  0  0  0
 28 62  1  0  0  0  0
 29 63  1  0  0  0  0
 30 31  1  0  0  0  0
 30 64  1  0  0  0  0
 31 32  2  0  0  0  0
 31 65  1  0  0  0  0
 32 33  1  0  0  0  0
 32 66  1  0  0  0  0
 33 34  2  0  0  0  0
 33 67  1  0  0  0  0
 34 68  1  0  0  0  0
 35 36  1  0  0  0  0
 35 69  1  0  0  0  0
 36 37  2  0  0  0  0
 36 70  1  0  0  0  0
 37 38  1  0  0  0  0
 37 71  1  0  0  0  0
 38 39  2  0  0  0  0
 38 72  1  0  0  0  0
 39 73  1  0  0  0  0
M  END
$$$$
