Title Card Required
 OpenBabel03192317513D

 48 52  0  0  1  0  0  0  0  0999 V2000
   -1.1693    2.2380    0.2982 C   0  0  0  0  0  0  0  0  0  0  0  0
   -1.1697    0.8391    0.2944 C   0  0  0  0  0  0  0  0  0  0  0  0
    0.0001    0.1353   -0.0002 C   0  0  0  0  0  0  0  0  0  0  0  0
    1.1698    0.8392   -0.2946 C   0  0  0  0  0  0  0  0  0  0  0  0
    1.1694    2.2381   -0.2981 C   0  0  0  0  0  0  0  0  0  0  0  0
    0.0000    2.9329    0.0001 C   0  0  0  0  0  0  0  0  0  0  0  0
   -2.4205    0.1195    0.6004 C   0  0  0  0  0  0  0  0  0  0  0  0
    2.4207    0.1197   -0.6007 C   0  0  0  0  0  0  0  0  0  0  0  0
   -2.3463   -1.2315    0.6007 O   0  0  0  0  0  0  0  0  0  0  0  0
   -3.6812   -1.7061    0.7782 C   0  0  0  0  0  0  0  0  0  0  0  0
   -4.4797   -0.4231    1.1448 C   0  0  1  0  0  0  0  0  0  0  0  0
   -3.5397    0.6570    0.8652 N   0  0  0  0  0  0  0  0  0  0  0  0
    3.5399    0.6572   -0.8655 N   0  0  0  0  0  0  0  0  0  0  0  0
    4.4799   -0.4228   -1.1452 C   0  0  2  0  0  0  0  0  0  0  0  0
    3.6813   -1.7060   -0.7794 C   0  0  0  0  0  0  0  0  0  0  0  0
    2.3465   -1.2313   -0.6013 O   0  0  0  0  0  0  0  0  0  0  0  0
   -5.7875   -0.3030    0.3931 C   0  0  0  0  0  0  0  0  0  0  0  0
    5.7875   -0.3029   -0.3930 C   0  0  0  0  0  0  0  0  0  0  0  0
    5.9593    0.6421    0.6198 C   0  0  0  0  0  0  0  0  0  0  0  0
    7.1613    0.7056    1.3254 C   0  0  0  0  0  0  0  0  0  0  0  0
    8.1999   -0.1741    1.0276 C   0  0  0  0  0  0  0  0  0  0  0  0
    8.0349   -1.1189    0.0139 C   0  0  0  0  0  0  0  0  0  0  0  0
    6.8365   -1.1791   -0.6932 C   0  0  0  0  0  0  0  0  0  0  0  0
   -6.8369   -1.1784    0.6943 C   0  0  0  0  0  0  0  0  0  0  0  0
   -8.0355   -1.1180   -0.0124 C   0  0  0  0  0  0  0  0  0  0  0  0
   -8.2003   -0.1739   -1.0267 C   0  0  0  0  0  0  0  0  0  0  0  0
   -7.1614    0.7050   -1.3255 C   0  0  0  0  0  0  0  0  0  0  0  0
   -5.9591    0.6414   -0.6203 C   0  0  0  0  0  0  0  0  0  0  0  0
   -2.0980    2.7582    0.5367 H   0  0  0  0  0  0  0  0  0  0  0  0
    0.0001   -0.9542   -0.0003 H   0  0  0  0  0  0  0  0  0  0  0  0
    2.0981    2.7583   -0.5366 H   0  0  0  0  0  0  0  0  0  0  0  0
    0.0000    4.0234    0.0002 H   0  0  0  0  0  0  0  0  0  0  0  0
   -3.6848   -2.4728    1.5628 H   0  0  0  0  0  0  0  0  0  0  0  0
   -4.0313   -2.1474   -0.1674 H   0  0  0  0  0  0  0  0  0  0  0  0
   -4.7077   -0.4070    2.2250 H   0  0  0  0  0  0  0  0  0  0  0  0
    4.7083   -0.4062   -2.2253 H   0  0  0  0  0  0  0  0  0  0  0  0
    3.6847   -2.4721   -1.5645 H   0  0  0  0  0  0  0  0  0  0  0  0
    4.0315   -2.1480    0.1659 H   0  0  0  0  0  0  0  0  0  0  0  0
    5.1434    1.3313    0.8396 H   0  0  0  0  0  0  0  0  0  0  0  0
    7.2868    1.4510    2.1125 H   0  0  0  0  0  0  0  0  0  0  0  0
    9.1387   -0.1230    1.5810 H   0  0  0  0  0  0  0  0  0  0  0  0
    8.8454   -1.8078   -0.2294 H   0  0  0  0  0  0  0  0  0  0  0  0
    6.7154   -1.9153   -1.4928 H   0  0  0  0  0  0  0  0  0  0  0  0
   -6.7159   -1.9141    1.4944 H   0  0  0  0  0  0  0  0  0  0  0  0
   -8.8463   -1.8063    0.2316 H   0  0  0  0  0  0  0  0  0  0  0  0
   -9.1393   -0.1226   -1.5799 H   0  0  0  0  0  0  0  0  0  0  0  0
   -7.2867    1.4500   -2.1131 H   0  0  0  0  0  0  0  0  0  0  0  0
   -5.1429    1.3300   -0.8408 H   0  0  0  0  0  0  0  0  0  0  0  0
  1  2  2  0  0  0  0
  1  6  1  0  0  0  0
  1 29  1  0  0  0  0
  2  3  1  0  0  0  0
  2  7  1  0  0  0  0
  3  4  2  0  0  0  0
  3 30  1  0  0  0  0
  4  5  1  0  0  0  0
  4  8  1  0  0  0  0
  5  6  2  0  0  0  0
  5 31  1  0  0  0  0
  6 32  1  0  0  0  0
  7  9  1  0  0  0  0
  7 12  2  0  0  0  0
  8 13  2  0  0  0  0
  8 16  1  0  0  0  0
  9 10  1  0  0  0  0
 10 11  1  0  0  0  0
 10 33  1  0  0  0  0
 10 34  1  0  0  0  0
 11 12  1  0  0  0  0
 11 17  1  0  0  0  0
 11 35  1  1  0  0  0
 13 14  1  0  0  0  0
 14 15  1  0  0  0  0
 14 18  1  0  0  0  0
 14 36  1  6  0  0  0
 15 16  1  0  0  0  0
 15 37  1  0  0  0  0
 15 38  1  0  0  0  0
 17 24  2  0  0  0  0
 17 28  1  0  0  0  0
 18 19  2  0  0  0  0
 18 23  1  0  0  0  0
 19 20  1  0  0  0  0
 19 39  1  0  0  0  0
 20 21  2  0  0  0  0
 20 40  1  0  0  0  0
 21 22  1  0  0  0  0
 21 41  1  0  0  0  0
 22 23  2  0  0  0  0
 22 42  1  0  0  0  0
 23 43  1  0  0  0  0
 24 25  1  0  0  0  0
 24 44  1  0  0  0  0
 25 26  2  0  0  0  0
 25 45  1  0  0  0  0
 26 27  1  0  0  0  0
 26 46  1  0  0  0  0
 27 28  2  0  0  0  0
 27 47  1  0  0  0  0
 28 48  1  0  0  0  0
M  END
$$$$
