Title Card Required
 OpenBabel03192317493D

 38 40  0  0  1  0  0  0  0  0999 V2000
    1.1641    0.4096    0.7320 C   0  0  1  0  0  0  0  0  0  0  0  0
    1.2368    1.7509    0.1764 N   0  0  0  0  0  0  0  0  0  0  0  0
    0.0129    2.2677   -0.1155 C   0  0  0  0  0  0  0  0  0  0  0  0
   -1.0115    1.2036    0.2673 C   0  0  2  0  0  0  0  0  0  0  0  0
   -0.1912    0.0092    0.3919 N   0  0  0  0  0  0  0  0  0  0  0  0
   -0.2228    3.3583   -0.5792 O   0  0  0  0  0  0  0  0  0  0  0  0
    3.3975   -0.5444    0.7239 O   0  0  0  0  0  0  0  0  0  0  0  0
    2.1731   -0.5250    0.1438 C   0  0  0  0  0  0  0  0  0  0  0  0
    2.1437   -1.3699   -0.9215 C   0  0  0  0  0  0  0  0  0  0  0  0
    3.4536   -1.9499   -0.9949 C   0  0  0  0  0  0  0  0  0  0  0  0
    4.1747   -1.4098    0.0298 C   0  0  0  0  0  0  0  0  0  0  0  0
    5.5727   -1.5914    0.5020 C   0  0  0  0  0  0  0  0  0  0  0  0
    2.4749    2.4609   -0.0076 C   0  0  0  0  0  0  0  0  0  0  0  0
   -2.1196    1.0780   -0.7751 C   0  0  0  0  0  0  0  0  0  0  0  0
   -3.1304    0.0294   -0.3879 C   0  0  0  0  0  0  0  0  0  0  0  0
   -4.2968    0.3728    0.3049 C   0  0  0  0  0  0  0  0  0  0  0  0
   -5.1994   -0.6075    0.7145 C   0  0  0  0  0  0  0  0  0  0  0  0
   -4.9467   -1.9507    0.4388 C   0  0  0  0  0  0  0  0  0  0  0  0
   -3.7873   -2.3058   -0.2504 C   0  0  0  0  0  0  0  0  0  0  0  0
   -2.8877   -1.3232   -0.6600 C   0  0  0  0  0  0  0  0  0  0  0  0
    1.3604    0.4610    1.8265 H   0  0  0  0  0  0  0  0  0  0  0  0
   -1.4625    1.5232    1.2301 H   0  0  0  0  0  0  0  0  0  0  0  0
   -0.5666   -0.6861    1.0293 H   0  0  0  0  0  0  0  0  0  0  0  0
    1.2839   -1.5474   -1.5599 H   0  0  0  0  0  0  0  0  0  0  0  0
    3.8174   -2.6798   -1.7125 H   0  0  0  0  0  0  0  0  0  0  0  0
    6.1250   -0.6409    0.4743 H   0  0  0  0  0  0  0  0  0  0  0  0
    5.5941   -1.9622    1.5370 H   0  0  0  0  0  0  0  0  0  0  0  0
    6.0890   -2.3144   -0.1399 H   0  0  0  0  0  0  0  0  0  0  0  0
    2.2227    3.4626   -0.3773 H   0  0  0  0  0  0  0  0  0  0  0  0
    3.0260    2.5462    0.9421 H   0  0  0  0  0  0  0  0  0  0  0  0
    3.1177    1.9509   -0.7416 H   0  0  0  0  0  0  0  0  0  0  0  0
   -2.5913    2.0657   -0.8803 H   0  0  0  0  0  0  0  0  0  0  0  0
   -1.6513    0.8243   -1.7377 H   0  0  0  0  0  0  0  0  0  0  0  0
   -4.5008    1.4249    0.5194 H   0  0  0  0  0  0  0  0  0  0  0  0
   -6.1062   -0.3209    1.2499 H   0  0  0  0  0  0  0  0  0  0  0  0
   -5.6532   -2.7186    0.7576 H   0  0  0  0  0  0  0  0  0  0  0  0
   -3.5848   -3.3547   -0.4744 H   0  0  0  0  0  0  0  0  0  0  0  0
   -1.9788   -1.5997   -1.1989 H   0  0  0  0  0  0  0  0  0  0  0  0
  1  2  1  0  0  0  0
  1  5  1  0  0  0  0
  1  8  1  0  0  0  0
  1 21  1  1  0  0  0
  2  3  1  0  0  0  0
  2 13  1  0  0  0  0
  3  4  1  0  0  0  0
  3  6  2  0  0  0  0
  4  5  1  0  0  0  0
  4 14  1  0  0  0  0
  4 22  1  1  0  0  0
  5 23  1  0  0  0  0
  7  8  1  0  0  0  0
  7 11  1  0  0  0  0
  8  9  2  0  0  0  0
  9 10  1  0  0  0  0
  9 24  1  0  0  0  0
 10 11  2  0  0  0  0
 10 25  1  0  0  0  0
 11 12  1  0  0  0  0
 12 26  1  0  0  0  0
 12 27  1  0  0  0  0
 12 28  1  0  0  0  0
 13 29  1  0  0  0  0
 13 30  1  0  0  0  0
 13 31  1  0  0  0  0
 14 15  1  0  0  0  0
 14 32  1  0  0  0  0
 14 33  1  0  0  0  0
 15 16  2  0  0  0  0
 15 20  1  0  0  0  0
 16 17  1  0  0  0  0
 16 34  1  0  0  0  0
 17 18  2  0  0  0  0
 17 35  1  0  0  0  0
 18 19  1  0  0  0  0
 18 36  1  0  0  0  0
 19 20  2  0  0  0  0
 19 37  1  0  0  0  0
 20 38  1  0  0  0  0
M  END
$$$$
