Title Card Required
 OpenBabel03192317453D

 70 76  0  0  0  0  0  0  0  0999 V2000
   -0.9464    0.2296    0.8429 O   0  0  0  0  0  0  0  0  0  0  0  0
    0.0202   -0.8142    0.0675 P   0  0  0  0  0  0  0  0  0  0  0  0
    0.9343    0.2082   -0.7920 O   0  0  0  0  0  0  0  0  0  0  0  0
    1.5124    1.2673   -0.1155 C   0  0  0  0  0  0  0  0  0  0  0  0
    0.7250    2.3531    0.2127 C   0  0  0  0  0  0  0  0  0  0  0  0
   -0.7051    2.3552   -0.2021 C   0  0  0  0  0  0  0  0  0  0  0  0
   -1.5019    1.2810    0.1415 C   0  0  0  0  0  0  0  0  0  0  0  0
    2.8885    1.1649    0.2358 C   0  0  0  0  0  0  0  0  0  0  0  0
    3.4478    2.2136    0.9307 C   0  0  0  0  0  0  0  0  0  0  0  0
    2.6839    3.3406    1.3295 C   0  0  0  0  0  0  0  0  0  0  0  0
    3.2709    4.3901    2.0885 C   0  0  0  0  0  0  0  0  0  0  0  0
    2.5151    5.4502    2.5219 C   0  0  0  0  0  0  0  0  0  0  0  0
    1.1323    5.5009    2.2212 C   0  0  0  0  0  0  0  0  0  0  0  0
    0.5397    4.5094    1.4767 C   0  0  0  0  0  0  0  0  0  0  0  0
    1.3013    3.4105    0.9920 C   0  0  0  0  0  0  0  0  0  0  0  0
   -2.8768    1.1845   -0.2172 C   0  0  0  0  0  0  0  0  0  0  0  0
   -3.4262    2.2249   -0.9317 C   0  0  0  0  0  0  0  0  0  0  0  0
   -2.6519    3.3393   -1.3452 C   0  0  0  0  0  0  0  0  0  0  0  0
   -3.2271    4.3795   -2.1256 C   0  0  0  0  0  0  0  0  0  0  0  0
   -2.4602    5.4242   -2.5765 C   0  0  0  0  0  0  0  0  0  0  0  0
   -1.0780    5.4675   -2.2720 C   0  0  0  0  0  0  0  0  0  0  0  0
   -0.4970    4.4851   -1.5065 C   0  0  0  0  0  0  0  0  0  0  0  0
   -1.2701    3.4026   -1.0035 C   0  0  0  0  0  0  0  0  0  0  0  0
   -0.8736   -1.4126   -1.1077 O   0  0  0  0  0  0  0  0  0  0  0  0
   -3.6806   -0.0129    0.1371 C   0  0  0  0  0  0  0  0  0  0  0  0
   -3.6295   -0.5831    1.4202 C   0  0  0  0  0  0  0  0  0  0  0  0
   -4.4198   -1.6823    1.7277 C   0  0  0  0  0  0  0  0  0  0  0  0
   -5.2740   -2.2466    0.7768 C   0  0  0  0  0  0  0  0  0  0  0  0
   -5.3187   -1.6874   -0.4920 C   0  0  0  0  0  0  0  0  0  0  0  0
   -4.5280   -0.5822   -0.8148 C   0  0  0  0  0  0  0  0  0  0  0  0
   -6.2062   -2.2651   -1.5636 C   0  0  0  0  0  0  0  0  0  0  0  0
   -6.9629   -3.2590   -1.1038 F   0  0  0  0  0  0  0  0  0  0  0  0
   -7.0185   -1.3332   -2.0672 F   0  0  0  0  0  0  0  0  0  0  0  0
   -5.4849   -2.7413   -2.5803 F   0  0  0  0  0  0  0  0  0  0  0  0
   -4.3807   -2.3025    3.1013 C   0  0  0  0  0  0  0  0  0  0  0  0
   -3.5457   -1.6635    3.9154 F   0  0  0  0  0  0  0  0  0  0  0  0
   -5.5894   -2.2918    3.6666 F   0  0  0  0  0  0  0  0  0  0  0  0
   -3.9940   -3.5780    3.0373 F   0  0  0  0  0  0  0  0  0  0  0  0
    3.6851   -0.0390   -0.1129 C   0  0  0  0  0  0  0  0  0  0  0  0
    3.6169   -0.6185   -1.3901 C   0  0  0  0  0  0  0  0  0  0  0  0
    4.3971   -1.7243   -1.6975 C   0  0  0  0  0  0  0  0  0  0  0  0
    5.2609   -2.2828   -0.7524 C   0  0  0  0  0  0  0  0  0  0  0  0
    5.3259   -1.7112    0.5097 C   0  0  0  0  0  0  0  0  0  0  0  0
    4.5412   -0.6027    0.8340 C   0  0  0  0  0  0  0  0  0  0  0  0
    6.2544   -2.2627    1.5604 C   0  0  0  0  0  0  0  0  0  0  0  0
    6.8273   -3.4000    1.1714 F   0  0  0  0  0  0  0  0  0  0  0  0
    7.2316   -1.3954    1.8392 F   0  0  0  0  0  0  0  0  0  0  0  0
    5.6094   -2.4991    2.7028 F   0  0  0  0  0  0  0  0  0  0  0  0
    4.3347   -2.3572   -3.0634 C   0  0  0  0  0  0  0  0  0  0  0  0
    3.4808   -1.7279   -3.8685 F   0  0  0  0  0  0  0  0  0  0  0  0
    5.5311   -2.3479   -3.6543 F   0  0  0  0  0  0  0  0  0  0  0  0
    3.9522   -3.6334   -2.9840 F   0  0  0  0  0  0  0  0  0  0  0  0
    0.6810   -1.7621    0.9603 O   0  0  0  0  0  0  0  0  0  0  0  0
    4.5081    2.1807    1.1913 H   0  0  0  0  0  0  0  0  0  0  0  0
    4.3339    4.3286    2.3292 H   0  0  0  0  0  0  0  0  0  0  0  0
    2.9731    6.2477    3.1083 H   0  0  0  0  0  0  0  0  0  0  0  0
    0.5294    6.3327    2.5880 H   0  0  0  0  0  0  0  0  0  0  0  0
   -0.5274    4.5560    1.2596 H   0  0  0  0  0  0  0  0  0  0  0  0
   -4.4854    2.1955   -1.1975 H   0  0  0  0  0  0  0  0  0  0  0  0
   -4.2899    4.3230   -2.3688 H   0  0  0  0  0  0  0  0  0  0  0  0
   -2.9087    6.2145   -3.1798 H   0  0  0  0  0  0  0  0  0  0  0  0
   -0.4661    6.2863   -2.6528 H   0  0  0  0  0  0  0  0  0  0  0  0
    0.5696    4.5262   -1.2866 H   0  0  0  0  0  0  0  0  0  0  0  0
   -1.0229   -2.3619   -0.9935 H   0  0  0  0  0  0  0  0  0  0  0  0
   -2.9718   -0.1624    2.1802 H   0  0  0  0  0  0  0  0  0  0  0  0
   -5.8922   -3.1104    1.0251 H   0  0  0  0  0  0  0  0  0  0  0  0
   -4.5624   -0.1716   -1.8262 H   0  0  0  0  0  0  0  0  0  0  0  0
    2.9528   -0.2001   -2.1455 H   0  0  0  0  0  0  0  0  0  0  0  0
    5.8681   -3.1550   -0.9986 H   0  0  0  0  0  0  0  0  0  0  0  0
    4.5837   -0.1901    1.8442 H   0  0  0  0  0  0  0  0  0  0  0  0
  1  2  1  0  0  0  0
  1  7  1  0  0  0  0
  2  3  1  0  0  0  0
  2 24  1  0  0  0  0
  2 53  2  0  0  0  0
  3  4  1  0  0  0  0
  4  5  2  0  0  0  0
  4  8  1  0  0  0  0
  5  6  1  0  0  0  0
  5 15  1  0  0  0  0
  6  7  2  0  0  0  0
  6 23  1  0  0  0  0
  7 16  1  0  0  0  0
  8  9  2  0  0  0  0
  8 39  1  0  0  0  0
  9 10  1  0  0  0  0
  9 54  1  0  0  0  0
 10 11  2  0  0  0  0
 10 15  1  0  0  0  0
 11 12  1  0  0  0  0
 11 55  1  0  0  0  0
 12 13  2  0  0  0  0
 12 56  1  0  0  0  0
 13 14  1  0  0  0  0
 13 57  1  0  0  0  0
 14 15  2  0  0  0  0
 14 58  1  0  0  0  0
 16 17  2  0  0  0  0
 16 25  1  0  0  0  0
 17 18  1  0  0  0  0
 17 59  1  0  0  0  0
 18 19  2  0  0  0  0
 18 23  1  0  0  0  0
 19 20  1  0  0  0  0
 19 60  1  0  0  0  0
 20 21  2  0  0  0  0
 20 61  1  0  0  0  0
 21 22  1  0  0  0  0
 21 62  1  0  0  0  0
 22 23  2  0  0  0  0
 22 63  1  0  0  0  0
 24 64  1  0  0  0  0
 25 26  2  0  0  0  0
 25 30  1  0  0  0  0
 26 27  1  0  0  0  0
 26 65  1  0  0  0  0
 27 28  2  0  0  0  0
 27 35  1  0  0  0  0
 28 29  1  0  0  0  0
 28 66  1  0  0  0  0
 29 30  2  0  0  0  0
 29 31  1  0  0  0  0
 30 67  1  0  0  0  0
 31 32  1  0  0  0  0
 31 33  1  0  0  0  0
 31 34  1  0  0  0  0
 35 36  1  0  0  0  0
 35 37  1  0  0  0  0
 35 38  1  0  0  0  0
 39 40  2  0  0  0  0
 39 44  1  0  0  0  0
 40 41  1  0  0  0  0
 40 68  1  0  0  0  0
 41 42  2  0  0  0  0
 41 49  1  0  0  0  0
 42 43  1  0  0  0  0
 42 69  1  0  0  0  0
 43 44  2  0  0  0  0
 43 45  1  0  0  0  0
 44 70  1  0  0  0  0
 45 46  1  0  0  0  0
 45 47  1  0  0  0  0
 45 48  1  0  0  0  0
 49 50  1  0  0  0  0
 49 51  1  0  0  0  0
 49 52  1  0  0  0  0
M  END
$$$$
