Title Card Required
 OpenBabel03192317563D

 62 68  0  0  0  0  0  0  0  0999 V2000
    0.9820   -0.2673   -0.7987 O   0  0  0  0  0  0  0  0  0  0  0  0
    0.0560   -1.3239    0.0270 P   0  0  0  0  0  0  0  0  0  0  0  0
   -0.9456   -0.2890    0.7844 O   0  0  0  0  0  0  0  0  0  0  0  0
   -1.4923    0.7580    0.0743 C   0  0  0  0  0  0  0  0  0  0  0  0
   -0.6954    1.8449   -0.2363 C   0  0  0  0  0  0  0  0  0  0  0  0
    0.7182    1.8547    0.2337 C   0  0  0  0  0  0  0  0  0  0  0  0
    1.5276    0.7811   -0.0808 C   0  0  0  0  0  0  0  0  0  0  0  0
   -2.8578    0.6537   -0.3266 C   0  0  0  0  0  0  0  0  0  0  0  0
   -3.3880    1.6947   -1.0583 C   0  0  0  0  0  0  0  0  0  0  0  0
   -2.6102    2.8172   -1.4400 C   0  0  0  0  0  0  0  0  0  0  0  0
   -3.1678    3.8578   -2.2334 C   0  0  0  0  0  0  0  0  0  0  0  0
   -2.3964    4.9144   -2.6466 C   0  0  0  0  0  0  0  0  0  0  0  0
   -1.0267    4.9713   -2.2896 C   0  0  0  0  0  0  0  0  0  0  0  0
   -0.4630    3.9888   -1.5118 C   0  0  0  0  0  0  0  0  0  0  0  0
   -1.2421    2.8927   -1.0480 C   0  0  0  0  0  0  0  0  0  0  0  0
    2.8830    0.6729    0.3404 C   0  0  0  0  0  0  0  0  0  0  0  0
    3.3992    1.7054    1.0906 C   0  0  0  0  0  0  0  0  0  0  0  0
    2.6121    2.8236    1.4696 C   0  0  0  0  0  0  0  0  0  0  0  0
    3.1547    3.8565    2.2822 C   0  0  0  0  0  0  0  0  0  0  0  0
    2.3748    4.9066    2.6971 C   0  0  0  0  0  0  0  0  0  0  0  0
    1.0104    4.9634    2.3224 C   0  0  0  0  0  0  0  0  0  0  0  0
    0.4606    3.9873    1.5263 C   0  0  0  0  0  0  0  0  0  0  0  0
    1.2493    2.8997    1.0599 C   0  0  0  0  0  0  0  0  0  0  0  0
    3.6986   -0.5221    0.0061 C   0  0  0  0  0  0  0  0  0  0  0  0
    3.7324   -1.0370   -1.2985 C   0  0  0  0  0  0  0  0  0  0  0  0
    4.5262   -2.1349   -1.6060 C   0  0  0  0  0  0  0  0  0  0  0  0
    5.2795   -2.7144   -0.5915 C   0  0  0  0  0  0  0  0  0  0  0  0
    5.2642   -2.2380    0.7128 C   0  0  0  0  0  0  0  0  0  0  0  0
    4.4664   -1.1370    1.0043 C   0  0  0  0  0  0  0  0  0  0  0  0
    6.1254   -3.8817   -0.9125 N   0  0  0  0  0  0  0  0  0  0  0  0
    6.1101   -4.2804   -2.0518 O   0  0  0  0  0  0  0  0  0  0  0  0
    6.7776   -4.3586   -0.0159 O   0  0  0  0  0  0  0  0  0  0  0  0
   -3.6767   -0.5396    0.0125 C   0  0  0  0  0  0  0  0  0  0  0  0
   -3.6303   -1.1205    1.2898 C   0  0  0  0  0  0  0  0  0  0  0  0
   -4.4310   -2.2129    1.6008 C   0  0  0  0  0  0  0  0  0  0  0  0
   -5.2748   -2.7215    0.6204 C   0  0  0  0  0  0  0  0  0  0  0  0
   -5.3446   -2.1782   -0.6556 C   0  0  0  0  0  0  0  0  0  0  0  0
   -4.5385   -1.0845   -0.9518 C   0  0  0  0  0  0  0  0  0  0  0  0
   -6.1288   -3.8824    0.9460 N   0  0  0  0  0  0  0  0  0  0  0  0
   -6.0420   -4.3370    2.0600 O   0  0  0  0  0  0  0  0  0  0  0  0
   -6.8570   -4.2959    0.0769 O   0  0  0  0  0  0  0  0  0  0  0  0
   -0.7857   -1.9645   -1.1584 O   0  0  0  0  0  0  0  0  0  0  0  0
    0.7107   -2.2551    0.9333 O   0  0  0  0  0  0  0  0  0  0  0  0
   -4.4390    1.6622   -1.3541 H   0  0  0  0  0  0  0  0  0  0  0  0
   -4.2206    3.7929   -2.5150 H   0  0  0  0  0  0  0  0  0  0  0  0
   -2.8309    5.7053   -3.2592 H   0  0  0  0  0  0  0  0  0  0  0  0
   -0.4116    5.8016   -2.6388 H   0  0  0  0  0  0  0  0  0  0  0  0
    0.5939    4.0399   -1.2501 H   0  0  0  0  0  0  0  0  0  0  0  0
    4.4423    1.6641    1.4124 H   0  0  0  0  0  0  0  0  0  0  0  0
    4.2029    3.7899    2.5797 H   0  0  0  0  0  0  0  0  0  0  0  0
    2.7982    5.6905    3.3261 H   0  0  0  0  0  0  0  0  0  0  0  0
    0.3871    5.7866    2.6741 H   0  0  0  0  0  0  0  0  0  0  0  0
   -0.5941    4.0373    1.2557 H   0  0  0  0  0  0  0  0  0  0  0  0
    3.1362   -0.5661   -2.0797 H   0  0  0  0  0  0  0  0  0  0  0  0
    4.5766   -2.5481   -2.6119 H   0  0  0  0  0  0  0  0  0  0  0  0
    5.8613   -2.7383    1.4733 H   0  0  0  0  0  0  0  0  0  0  0  0
    4.4162   -0.7618    2.0274 H   0  0  0  0  0  0  0  0  0  0  0  0
   -2.9641   -0.7102    2.0474 H   0  0  0  0  0  0  0  0  0  0  0  0
   -4.4144   -2.6753    2.5863 H   0  0  0  0  0  0  0  0  0  0  0  0
   -6.0167   -2.6190   -1.3900 H   0  0  0  0  0  0  0  0  0  0  0  0
   -4.5675   -0.6552   -1.9548 H   0  0  0  0  0  0  0  0  0  0  0  0
   -1.1031   -1.3289   -1.8159 H   0  0  0  0  0  0  0  0  0  0  0  0
  1  2  1  0  0  0  0
  1  7  1  0  0  0  0
  2  3  1  0  0  0  0
  2 42  1  0  0  0  0
  2 43  2  0  0  0  0
  3  4  1  0  0  0  0
  4  5  2  0  0  0  0
  4  8  1  0  0  0  0
  5  6  1  0  0  0  0
  5 15  1  0  0  0  0
  6  7  2  0  0  0  0
  6 23  1  0  0  0  0
  7 16  1  0  0  0  0
  8  9  2  0  0  0  0
  8 33  1  0  0  0  0
  9 10  1  0  0  0  0
  9 44  1  0  0  0  0
 10 11  2  0  0  0  0
 10 15  1  0  0  0  0
 11 12  1  0  0  0  0
 11 45  1  0  0  0  0
 12 13  2  0  0  0  0
 12 46  1  0  0  0  0
 13 14  1  0  0  0  0
 13 47  1  0  0  0  0
 14 15  2  0  0  0  0
 14 48  1  0  0  0  0
 16 17  2  0  0  0  0
 16 24  1  0  0  0  0
 17 18  1  0  0  0  0
 17 49  1  0  0  0  0
 18 19  2  0  0  0  0
 18 23  1  0  0  0  0
 19 20  1  0  0  0  0
 19 50  1  0  0  0  0
 20 21  2  0  0  0  0
 20 51  1  0  0  0  0
 21 22  1  0  0  0  0
 21 52  1  0  0  0  0
 22 23  2  0  0  0  0
 22 53  1  0  0  0  0
 24 25  2  0  0  0  0
 24 29  1  0  0  0  0
 25 26  1  0  0  0  0
 25 54  1  0  0  0  0
 26 27  2  0  0  0  0
 26 55  1  0  0  0  0
 27 28  1  0  0  0  0
 27 30  1  0  0  0  0
 28 29  2  0  0  0  0
 28 56  1  0  0  0  0
 29 57  1  0  0  0  0
 30 31  2  0  0  0  0
 30 32  2  0  0  0  0
 33 34  2  0  0  0  0
 33 38  1  0  0  0  0
 34 35  1  0  0  0  0
 34 58  1  0  0  0  0
 35 36  2  0  0  0  0
 35 59  1  0  0  0  0
 36 37  1  0  0  0  0
 36 39  1  0  0  0  0
 37 38  2  0  0  0  0
 37 60  1  0  0  0  0
 38 61  1  0  0  0  0
 39 40  2  0  0  0  0
 39 41  2  0  0  0  0
 42 62  1  0  0  0  0
M  END
$$$$
