Title Card Required
 OpenBabel03192317413D

 76 82  0  0  0  0  0  0  0  0999 V2000
    0.8748   -0.6768   -0.6951 O   0  0  0  0  0  0  0  0  0  0  0  0
   -0.0722   -1.6271    0.2019 P   0  0  0  0  0  0  0  0  0  0  0  0
   -1.0070   -0.5344    0.9473 O   0  0  0  0  0  0  0  0  0  0  0  0
   -1.5252    0.5160    0.2176 C   0  0  0  0  0  0  0  0  0  0  0  0
   -0.6949    1.5620   -0.1343 C   0  0  0  0  0  0  0  0  0  0  0  0
    0.7419    1.5101    0.2550 C   0  0  0  0  0  0  0  0  0  0  0  0
    1.4908    0.3911   -0.0625 C   0  0  0  0  0  0  0  0  0  0  0  0
   -2.9017    0.4463   -0.1361 C   0  0  0  0  0  0  0  0  0  0  0  0
   -3.4374    1.5117   -0.8190 C   0  0  0  0  0  0  0  0  0  0  0  0
   -2.6378    2.6114   -1.2300 C   0  0  0  0  0  0  0  0  0  0  0  0
   -3.1971    3.6765   -1.9879 C   0  0  0  0  0  0  0  0  0  0  0  0
   -2.4092    4.6991   -2.4540 C   0  0  0  0  0  0  0  0  0  0  0  0
   -1.0180    4.6916   -2.1915 C   0  0  0  0  0  0  0  0  0  0  0  0
   -0.4505    3.6842   -1.4488 C   0  0  0  0  0  0  0  0  0  0  0  0
   -1.2451    2.6268   -0.9246 C   0  0  0  0  0  0  0  0  0  0  0  0
    2.8800    0.2688    0.2107 C   0  0  0  0  0  0  0  0  0  0  0  0
    3.4987    1.3242    0.8383 C   0  0  0  0  0  0  0  0  0  0  0  0
    2.7774    2.4744    1.2547 C   0  0  0  0  0  0  0  0  0  0  0  0
    3.4216    3.5263    1.9629 C   0  0  0  0  0  0  0  0  0  0  0  0
    2.7116    4.6117    2.4105 C   0  0  0  0  0  0  0  0  0  0  0  0
    1.3169    4.6872    2.1767 C   0  0  0  0  0  0  0  0  0  0  0  0
    0.6688    3.6943    1.4830 C   0  0  0  0  0  0  0  0  0  0  0  0
    1.3813    2.5681    0.9838 C   0  0  0  0  0  0  0  0  0  0  0  0
    3.6233   -0.9598   -0.1970 C   0  0  0  0  0  0  0  0  0  0  0  0
    3.9408   -1.1513   -1.5530 C   0  0  0  0  0  0  0  0  0  0  0  0
    3.5069   -0.1477   -2.5894 C   0  0  0  0  0  0  0  0  0  0  0  0
    4.6533   -2.2931   -1.9249 C   0  0  0  0  0  0  0  0  0  0  0  0
    5.0489   -3.2477   -0.9862 C   0  0  0  0  0  0  0  0  0  0  0  0
    5.8445   -4.4587   -1.3991 C   0  0  0  0  0  0  0  0  0  0  0  0
    4.7055   -3.0418    0.3511 C   0  0  0  0  0  0  0  0  0  0  0  0
    3.9957   -1.9128    0.7674 C   0  0  0  0  0  0  0  0  0  0  0  0
    3.5981   -1.7552    2.2123 C   0  0  0  0  0  0  0  0  0  0  0  0
   -3.6776   -0.7889    0.1787 C   0  0  0  0  0  0  0  0  0  0  0  0
   -3.9924   -1.1098    1.5131 C   0  0  0  0  0  0  0  0  0  0  0  0
   -3.6026   -0.1882    2.6386 C   0  0  0  0  0  0  0  0  0  0  0  0
   -4.6712   -2.3001    1.7797 C   0  0  0  0  0  0  0  0  0  0  0  0
   -5.0361   -3.1854    0.7622 C   0  0  0  0  0  0  0  0  0  0  0  0
   -5.7339   -4.4807    1.0848 C   0  0  0  0  0  0  0  0  0  0  0  0
   -4.7211   -2.8414   -0.5539 C   0  0  0  0  0  0  0  0  0  0  0  0
   -4.0542   -1.6518   -0.8688 C   0  0  0  0  0  0  0  0  0  0  0  0
   -3.7402   -1.3281   -2.3092 C   0  0  0  0  0  0  0  0  0  0  0  0
   -0.9611   -2.2276   -0.9773 O   0  0  0  0  0  0  0  0  0  0  0  0
    0.5357   -2.5560    1.1539 O   0  0  0  0  0  0  0  0  0  0  0  0
   -4.4968    1.4999   -1.0868 H   0  0  0  0  0  0  0  0  0  0  0  0
   -4.2676    3.6566   -2.2020 H   0  0  0  0  0  0  0  0  0  0  0  0
   -2.8484    5.5088   -3.0383 H   0  0  0  0  0  0  0  0  0  0  0  0
   -0.3883    5.4900   -2.5865 H   0  0  0  0  0  0  0  0  0  0  0  0
    0.6230    3.6861   -1.2614 H   0  0  0  0  0  0  0  0  0  0  0  0
    4.5702    1.2666    1.0448 H   0  0  0  0  0  0  0  0  0  0  0  0
    4.4937    3.4449    2.1529 H   0  0  0  0  0  0  0  0  0  0  0  0
    3.2150    5.4105    2.9570 H   0  0  0  0  0  0  0  0  0  0  0  0
    0.7503    5.5388    2.5560 H   0  0  0  0  0  0  0  0  0  0  0  0
   -0.4068    3.7588    1.3179 H   0  0  0  0  0  0  0  0  0  0  0  0
    3.9157   -0.3997   -3.5764 H   0  0  0  0  0  0  0  0  0  0  0  0
    2.4090   -0.1248   -2.6686 H   0  0  0  0  0  0  0  0  0  0  0  0
    3.8365    0.8679   -2.3247 H   0  0  0  0  0  0  0  0  0  0  0  0
    4.9027   -2.4412   -2.9790 H   0  0  0  0  0  0  0  0  0  0  0  0
    6.9214   -4.2913   -1.2412 H   0  0  0  0  0  0  0  0  0  0  0  0
    5.5590   -5.3414   -0.8105 H   0  0  0  0  0  0  0  0  0  0  0  0
    5.6965   -4.6893   -2.4626 H   0  0  0  0  0  0  0  0  0  0  0  0
    4.9903   -3.7880    1.0976 H   0  0  0  0  0  0  0  0  0  0  0  0
    4.0266   -2.5612    2.8217 H   0  0  0  0  0  0  0  0  0  0  0  0
    3.9304   -0.7933    2.6268 H   0  0  0  0  0  0  0  0  0  0  0  0
    2.5025   -1.8041    2.3013 H   0  0  0  0  0  0  0  0  0  0  0  0
   -4.0950   -0.4828    3.5741 H   0  0  0  0  0  0  0  0  0  0  0  0
   -2.5143   -0.2158    2.7978 H   0  0  0  0  0  0  0  0  0  0  0  0
   -3.8762    0.8524    2.4124 H   0  0  0  0  0  0  0  0  0  0  0  0
   -4.9195   -2.5443    2.8161 H   0  0  0  0  0  0  0  0  0  0  0  0
   -6.1867   -4.9252    0.1889 H   0  0  0  0  0  0  0  0  0  0  0  0
   -5.0250   -5.2125    1.5020 H   0  0  0  0  0  0  0  0  0  0  0  0
   -6.5245   -4.3291    1.8329 H   0  0  0  0  0  0  0  0  0  0  0  0
   -5.0097   -3.5140   -1.3661 H   0  0  0  0  0  0  0  0  0  0  0  0
   -3.9545   -2.1911   -2.9534 H   0  0  0  0  0  0  0  0  0  0  0  0
   -4.3433   -0.4824   -2.6709 H   0  0  0  0  0  0  0  0  0  0  0  0
   -2.6835   -1.0524   -2.4326 H   0  0  0  0  0  0  0  0  0  0  0  0
   -1.6177   -2.8682   -0.6621 H   0  0  0  0  0  0  0  0  0  0  0  0
  1  2  1  0  0  0  0
  1  7  1  0  0  0  0
  2  3  1  0  0  0  0
  2 42  1  0  0  0  0
  2 43  2  0  0  0  0
  3  4  1  0  0  0  0
  4  5  2  0  0  0  0
  4  8  1  0  0  0  0
  5  6  1  0  0  0  0
  5 15  1  0  0  0  0
  6  7  2  0  0  0  0
  6 23  1  0  0  0  0
  7 16  1  0  0  0  0
  8  9  2  0  0  0  0
  8 33  1  0  0  0  0
  9 10  1  0  0  0  0
  9 44  1  0  0  0  0
 10 11  2  0  0  0  0
 10 15  1  0  0  0  0
 11 12  1  0  0  0  0
 11 45  1  0  0  0  0
 12 13  2  0  0  0  0
 12 46  1  0  0  0  0
 13 14  1  0  0  0  0
 13 47  1  0  0  0  0
 14 15  2  0  0  0  0
 14 48  1  0  0  0  0
 16 17  2  0  0  0  0
 16 24  1  0  0  0  0
 17 18  1  0  0  0  0
 17 49  1  0  0  0  0
 18 19  2  0  0  0  0
 18 23  1  0  0  0  0
 19 20  1  0  0  0  0
 19 50  1  0  0  0  0
 20 21  2  0  0  0  0
 20 51  1  0  0  0  0
 21 22  1  0  0  0  0
 21 52  1  0  0  0  0
 22 23  2  0  0  0  0
 22 53  1  0  0  0  0
 24 25  2  0  0  0  0
 24 31  1  0  0  0  0
 25 26  1  0  0  0  0
 25 27  1  0  0  0  0
 26 54  1  0  0  0  0
 26 55  1  0  0  0  0
 26 56  1  0  0  0  0
 27 28  2  0  0  0  0
 27 57  1  0  0  0  0
 28 29  1  0  0  0  0
 28 30  1  0  0  0  0
 29 58  1  0  0  0  0
 29 59  1  0  0  0  0
 29 60  1  0  0  0  0
 30 31  2  0  0  0  0
 30 61  1  0  0  0  0
 31 32  1  0  0  0  0
 32 62  1  0  0  0  0
 32 63  1  0  0  0  0
 32 64  1  0  0  0  0
 33 34  2  0  0  0  0
 33 40  1  0  0  0  0
 34 35  1  0  0  0  0
 34 36  1  0  0  0  0
 35 65  1  0  0  0  0
 35 66  1  0  0  0  0
 35 67  1  0  0  0  0
 36 37  2  0  0  0  0
 36 68  1  0  0  0  0
 37 38  1  0  0  0  0
 37 39  1  0  0  0  0
 38 69  1  0  0  0  0
 38 70  1  0  0  0  0
 38 71  1  0  0  0  0
 39 40  2  0  0  0  0
 39 72  1  0  0  0  0
 40 41  1  0  0  0  0
 41 73  1  0  0  0  0
 41 74  1  0  0  0  0
 41 75  1  0  0  0  0
 42 76  1  0  0  0  0
M  END
$$$$
