Title Card Required
 OpenBabel03192317403D

 31 32  0  0  1  0  0  0  0  0999 V2000
    0.4706   -0.5808   -0.4988 C   0  0  1  0  0  0  0  0  0  0  0  0
   -0.4224    0.2495    0.4594 C   0  0  1  0  0  0  0  0  0  0  0  0
   -1.9009    0.2158    0.1207 C   0  0  0  0  0  0  0  0  0  0  0  0
   -2.6849    1.3292    0.4457 C   0  0  0  0  0  0  0  0  0  0  0  0
   -4.0564    1.3384    0.1987 C   0  0  0  0  0  0  0  0  0  0  0  0
   -4.6640    0.2268   -0.3830 C   0  0  0  0  0  0  0  0  0  0  0  0
   -3.8919   -0.8861   -0.7131 C   0  0  0  0  0  0  0  0  0  0  0  0
   -2.5204   -0.8974   -0.4604 C   0  0  0  0  0  0  0  0  0  0  0  0
    1.9257   -0.1472   -0.3657 C   0  0  0  0  0  0  0  0  0  0  0  0
    2.8840   -1.0191    0.1536 C   0  0  0  0  0  0  0  0  0  0  0  0
    4.2089   -0.6066    0.3049 C   0  0  0  0  0  0  0  0  0  0  0  0
    4.5914    0.6797   -0.0687 C   0  0  0  0  0  0  0  0  0  0  0  0
    3.6416    1.5532   -0.6015 C   0  0  0  0  0  0  0  0  0  0  0  0
    2.3198    1.1412   -0.7484 C   0  0  0  0  0  0  0  0  0  0  0  0
   -0.2113   -0.3081    1.7977 N   0  0  0  0  0  0  0  0  0  0  0  0
    0.3007   -1.9424   -0.2266 O   0  0  0  0  0  0  0  0  0  0  0  0
    0.1416   -0.3897   -1.5343 H   0  0  0  0  0  0  0  0  0  0  0  0
   -0.1020    1.3045    0.3899 H   0  0  0  0  0  0  0  0  0  0  0  0
   -2.2094    2.2064    0.8930 H   0  0  0  0  0  0  0  0  0  0  0  0
   -4.6498    2.2175    0.4552 H   0  0  0  0  0  0  0  0  0  0  0  0
   -5.7368    0.2294   -0.5819 H   0  0  0  0  0  0  0  0  0  0  0  0
   -4.3610   -1.7578   -1.1724 H   0  0  0  0  0  0  0  0  0  0  0  0
   -1.9199   -1.7709   -0.7159 H   0  0  0  0  0  0  0  0  0  0  0  0
    2.5794   -2.0314    0.4201 H   0  0  0  0  0  0  0  0  0  0  0  0
    4.9477   -1.2993    0.7120 H   0  0  0  0  0  0  0  0  0  0  0  0
    5.6276    1.0010    0.0463 H   0  0  0  0  0  0  0  0  0  0  0  0
    3.9348    2.5586   -0.9084 H   0  0  0  0  0  0  0  0  0  0  0  0
    1.5842    1.8280   -1.1768 H   0  0  0  0  0  0  0  0  0  0  0  0
    0.6812    0.0059    2.1788 H   0  0  0  0  0  0  0  0  0  0  0  0
   -0.9480   -0.0171    2.4353 H   0  0  0  0  0  0  0  0  0  0  0  0
    0.0984   -1.9701    0.7280 H   0  0  0  0  0  0  0  0  0  0  0  0
  1  2  1  0  0  0  0
  1  9  1  0  0  0  0
  1 16  1  0  0  0  0
  1 17  1  6  0  0  0
  2  3  1  0  0  0  0
  2 15  1  0  0  0  0
  2 18  1  6  0  0  0
  3  4  2  0  0  0  0
  3  8  1  0  0  0  0
  4  5  1  0  0  0  0
  4 19  1  0  0  0  0
  5  6  2  0  0  0  0
  5 20  1  0  0  0  0
  6  7  1  0  0  0  0
  6 21  1  0  0  0  0
  7  8  2  0  0  0  0
  7 22  1  0  0  0  0
  8 23  1  0  0  0  0
  9 10  2  0  0  0  0
  9 14  1  0  0  0  0
 10 11  1  0  0  0  0
 10 24  1  0  0  0  0
 11 12  2  0  0  0  0
 11 25  1  0  0  0  0
 12 13  1  0  0  0  0
 12 26  1  0  0  0  0
 13 14  2  0  0  0  0
 13 27  1  0  0  0  0
 14 28  1  0  0  0  0
 15 29  1  0  0  0  0
 15 30  1  0  0  0  0
 16 31  1  0  0  0  0
M  END
$$$$
