Title Card Required
 OpenBabel03192317463D

 30 33  0  0  1  0  0  0  0  0999 V2000
    1.9578   -2.0357    0.1516 S   0  0  0  0  0  0  0  0  0  0  0  0
    0.5338   -1.0586    0.5063 C   0  0  1  0  0  3  0  0  0  0  0  0
    0.8595    0.2892    0.5183 N   0  0  0  0  0  0  0  0  0  0  0  0
    2.1343    0.6002    0.0989 C   0  0  0  0  0  0  0  0  0  0  0  0
    2.9034   -0.5600   -0.1293 C   0  0  0  0  0  0  0  0  0  0  0  0
   -0.6760   -1.3744    0.7207 N   0  0  0  0  0  2  0  0  0  0  0  0
   -1.3688   -0.1107    1.0028 C   0  0  1  0  0  0  0  0  0  0  0  0
   -0.3837    1.0348    0.5772 C   0  0  0  0  0  0  0  0  0  0  0  0
    4.2293   -0.4653   -0.5243 C   0  0  0  0  0  0  0  0  0  0  0  0
    4.7886    0.8038   -0.7074 C   0  0  0  0  0  0  0  0  0  0  0  0
    4.0237    1.9505   -0.4968 C   0  0  0  0  0  0  0  0  0  0  0  0
    2.6902    1.8633   -0.0903 C   0  0  0  0  0  0  0  0  0  0  0  0
   -2.7186    0.0107    0.3337 C   0  0  0  0  0  0  0  0  0  0  0  0
   -3.1349   -0.8970   -0.6410 C   0  0  0  0  0  0  0  0  0  0  0  0
   -4.3711   -0.7337   -1.2681 C   0  0  0  0  0  0  0  0  0  0  0  0
   -5.1982    0.3352   -0.9284 C   0  0  0  0  0  0  0  0  0  0  0  0
   -4.7880    1.2429    0.0487 C   0  0  0  0  0  0  0  0  0  0  0  0
   -3.5567    1.0775    0.6774 C   0  0  0  0  0  0  0  0  0  0  0  0
   -1.5244   -0.0517    2.0951 H   0  0  0  0  0  0  0  0  0  0  0  0
   -0.3420    1.8540    1.3075 H   0  0  0  0  0  0  0  0  0  0  0  0
   -0.6419    1.4460   -0.4145 H   0  0  0  0  0  0  0  0  0  0  0  0
    4.8211   -1.3654   -0.6966 H   0  0  0  0  0  0  0  0  0  0  0  0
    5.8288    0.8919   -1.0212 H   0  0  0  0  0  0  0  0  0  0  0  0
    4.4705    2.9340   -0.6484 H   0  0  0  0  0  0  0  0  0  0  0  0
    2.0921    2.7589    0.0814 H   0  0  0  0  0  0  0  0  0  0  0  0
   -2.4822   -1.7346   -0.8892 H   0  0  0  0  0  0  0  0  0  0  0  0
   -4.6913   -1.4505   -2.0262 H   0  0  0  0  0  0  0  0  0  0  0  0
   -6.1645    0.4595   -1.4199 H   0  0  0  0  0  0  0  0  0  0  0  0
   -5.4325    2.0787    0.3258 H   0  0  0  0  0  0  0  0  0  0  0  0
   -3.2428    1.7839    1.4510 H   0  0  0  0  0  0  0  0  0  0  0  0
  1  5  1  0  0  0  0
  2  1  1  6  0  0  0
  2  3  1  0  0  0  0
  2  6  1  0  0  0  0
  3  4  1  0  0  0  0
  3  8  1  0  0  0  0
  4  5  2  0  0  0  0
  4 12  1  0  0  0  0
  5  9  1  0  0  0  0
  6  7  1  0  0  0  0
  7  8  1  0  0  0  0
  7 13  1  0  0  0  0
  7 19  1  1  0  0  0
  8 20  1  0  0  0  0
  8 21  1  0  0  0  0
  9 10  2  0  0  0  0
  9 22  1  0  0  0  0
 10 11  1  0  0  0  0
 10 23  1  0  0  0  0
 11 12  2  0  0  0  0
 11 24  1  0  0  0  0
 12 25  1  0  0  0  0
 13 14  2  0  0  0  0
 13 18  1  0  0  0  0
 14 15  1  0  0  0  0
 14 26  1  0  0  0  0
 15 16  2  0  0  0  0
 15 27  1  0  0  0  0
 16 17  1  0  0  0  0
 16 28  1  0  0  0  0
 17 18  2  0  0  0  0
 17 29  1  0  0  0  0
 18 30  1  0  0  0  0
M  END
$$$$
