Title Card Required
 OpenBabel03192317443D

 56 58  0  0  1  0  0  0  0  0999 V2000
   -0.1757    2.1452    0.9183 C   0  0  0  0  0  0  0  0  0  0  0  0
   -1.5249    2.4706    0.8104 C   0  0  0  0  0  0  0  0  0  0  0  0
   -1.9152    3.4115   -0.1402 C   0  0  0  0  0  0  0  0  0  0  0  0
   -0.9751    4.0254   -0.9770 C   0  0  0  0  0  0  0  0  0  0  0  0
    0.3766    3.6797   -0.8382 C   0  0  0  0  0  0  0  0  0  0  0  0
    0.7864    2.7438    0.1066 C   0  0  0  0  0  0  0  0  0  0  0  0
    0.3135    0.8768    2.0694 S   0  0  0  0  0  0  0  0  0  0  0  0
    1.7303    1.0451    2.3208 O   0  0  0  0  0  0  0  0  0  0  0  0
   -0.6558    0.8341    3.1495 O   0  0  0  0  0  0  0  0  0  0  0  0
    0.0788   -0.5533    1.2373 N   0  0  0  0  0  0  0  0  0  0  0  0
   -1.3932    5.0487   -1.9986 C   0  0  0  0  0  0  0  0  0  0  0  0
    0.4826   -0.6777   -0.1609 C   0  0  2  0  0  0  0  0  0  0  0  0
   -0.1625   -1.9831   -0.7169 C   0  0  2  0  0  0  0  0  0  0  0  0
   -1.6845   -1.9391   -0.5980 C   0  0  0  0  0  0  0  0  0  0  0  0
   -2.4074   -0.7607   -0.8078 C   0  0  0  0  0  0  0  0  0  0  0  0
   -3.7991   -0.7209   -0.7027 C   0  0  0  0  0  0  0  0  0  0  0  0
   -4.5030   -1.8861   -0.3821 C   0  0  0  0  0  0  0  0  0  0  0  0
   -3.7930   -3.0751   -0.1747 C   0  0  0  0  0  0  0  0  0  0  0  0
   -2.4098   -3.0979   -0.2814 C   0  0  0  0  0  0  0  0  0  0  0  0
   -5.8454   -1.9551   -0.2521 O   0  0  0  0  0  0  0  0  0  0  0  0
   -6.5952   -0.7848   -0.4377 C   0  0  0  0  0  0  0  0  0  0  0  0
    1.9825   -0.6870   -0.3454 C   0  0  0  0  0  0  0  0  0  0  0  0
    2.8517   -1.1816    0.6253 C   0  0  0  0  0  0  0  0  0  0  0  0
    4.2266   -1.2532    0.3950 C   0  0  0  0  0  0  0  0  0  0  0  0
    4.7503   -0.8246   -0.8291 C   0  0  0  0  0  0  0  0  0  0  0  0
    3.8849   -0.3199   -1.8101 C   0  0  0  0  0  0  0  0  0  0  0  0
    2.5221   -0.2524   -1.5635 C   0  0  0  0  0  0  0  0  0  0  0  0
    6.0630   -0.8495   -1.1467 O   0  0  0  0  0  0  0  0  0  0  0  0
    6.9743   -1.3001   -0.1797 C   0  0  0  0  0  0  0  0  0  0  0  0
    0.3668   -3.1934   -0.1250 N   0  0  0  0  0  0  0  0  0  0  0  0
   -2.2496    1.9962    1.4752 H   0  0  0  0  0  0  0  0  0  0  0  0
   -2.9693    3.6822   -0.2294 H   0  0  0  0  0  0  0  0  0  0  0  0
    1.1205    4.1566   -1.4805 H   0  0  0  0  0  0  0  0  0  0  0  0
    1.8366    2.4699    0.2277 H   0  0  0  0  0  0  0  0  0  0  0  0
   -0.8857   -0.8492    1.3987 H   0  0  0  0  0  0  0  0  0  0  0  0
   -0.9487    6.0288   -1.7710 H   0  0  0  0  0  0  0  0  0  0  0  0
   -1.0533    4.7608   -3.0039 H   0  0  0  0  0  0  0  0  0  0  0  0
   -2.4837    5.1673   -2.0246 H   0  0  0  0  0  0  0  0  0  0  0  0
    0.0907    0.1632   -0.7616 H   0  0  0  0  0  0  0  0  0  0  0  0
    0.0961   -2.0021   -1.7894 H   0  0  0  0  0  0  0  0  0  0  0  0
   -1.8943    0.1706   -1.0582 H   0  0  0  0  0  0  0  0  0  0  0  0
   -4.3152    0.2231   -0.8724 H   0  0  0  0  0  0  0  0  0  0  0  0
   -4.3585   -3.9740    0.0728 H   0  0  0  0  0  0  0  0  0  0  0  0
   -1.8627   -4.0273   -0.1254 H   0  0  0  0  0  0  0  0  0  0  0  0
   -6.3125   -0.0045    0.2889 H   0  0  0  0  0  0  0  0  0  0  0  0
   -6.4737   -0.3831   -1.4577 H   0  0  0  0  0  0  0  0  0  0  0  0
   -7.6455   -1.0544   -0.2819 H   0  0  0  0  0  0  0  0  0  0  0  0
    2.4527   -1.4792    1.5958 H   0  0  0  0  0  0  0  0  0  0  0  0
    4.8775   -1.6298    1.1823 H   0  0  0  0  0  0  0  0  0  0  0  0
    4.3152    0.0201   -2.7524 H   0  0  0  0  0  0  0  0  0  0  0  0
    1.8574    0.1529   -2.3319 H   0  0  0  0  0  0  0  0  0  0  0  0
    6.9377   -0.6790    0.7307 H   0  0  0  0  0  0  0  0  0  0  0  0
    6.7845   -2.3508    0.0966 H   0  0  0  0  0  0  0  0  0  0  0  0
    7.9714   -1.2225   -0.6269 H   0  0  0  0  0  0  0  0  0  0  0  0
    1.3602   -3.2733   -0.3319 H   0  0  0  0  0  0  0  0  0  0  0  0
    0.2835   -3.1451    0.8913 H   0  0  0  0  0  0  0  0  0  0  0  0
  1  2  2  0  0  0  0
  1  6  1  0  0  0  0
  1  7  1  0  0  0  0
  2  3  1  0  0  0  0
  2 31  1  0  0  0  0
  3  4  2  0  0  0  0
  3 32  1  0  0  0  0
  4  5  1  0  0  0  0
  4 11  1  0  0  0  0
  5  6  2  0  0  0  0
  5 33  1  0  0  0  0
  6 34  1  0  0  0  0
  7  8  2  0  0  0  0
  7  9  2  0  0  0  0
  7 10  1  0  0  0  0
 10 12  1  0  0  0  0
 10 35  1  0  0  0  0
 11 36  1  0  0  0  0
 11 37  1  0  0  0  0
 11 38  1  0  0  0  0
 12 13  1  0  0  0  0
 12 22  1  0  0  0  0
 12 39  1  6  0  0  0
 13 14  1  0  0  0  0
 13 30  1  0  0  0  0
 13 40  1  6  0  0  0
 14 15  2  0  0  0  0
 14 19  1  0  0  0  0
 15 16  1  0  0  0  0
 15 41  1  0  0  0  0
 16 17  2  0  0  0  0
 16 42  1  0  0  0  0
 17 18  1  0  0  0  0
 17 20  1  0  0  0  0
 18 19  2  0  0  0  0
 18 43  1  0  0  0  0
 19 44  1  0  0  0  0
 20 21  1  0  0  0  0
 21 45  1  0  0  0  0
 21 46  1  0  0  0  0
 21 47  1  0  0  0  0
 22 23  2  0  0  0  0
 22 27  1  0  0  0  0
 23 24  1  0  0  0  0
 23 48  1  0  0  0  0
 24 25  2  0  0  0  0
 24 49  1  0  0  0  0
 25 26  1  0  0  0  0
 25 28  1  0  0  0  0
 26 27  2  0  0  0  0
 26 50  1  0  0  0  0
 27 51  1  0  0  0  0
 28 29  1  0  0  0  0
 29 52  1  0  0  0  0
 29 53  1  0  0  0  0
 29 54  1  0  0  0  0
 30 55  1  0  0  0  0
 30 56  1  0  0  0  0
M  END
$$$$
