Title Card Required
 OpenBabel03192317473D

 87 94  0  0  1  0  0  0  0  0999 V2000
    1.3791    1.3152   -0.1269 O   0  0  0  0  0  0  0  0  0  0  0  0
    0.6371    0.2916    0.3430 C   0  0  0  0  0  0  0  0  0  0  0  0
    0.5950   -0.7792   -0.3315 N   0  0  0  0  0  0  0  0  0  0  0  0
    1.4616   -0.5965   -1.4917 C   0  0  1  0  0  0  0  0  0  0  0  0
    1.7698    0.9524   -1.4611 C   0  0  2  0  0  0  0  0  0  0  0  0
   -0.1012    0.4940    1.6536 C   0  0  0  0  0  0  0  0  0  0  0  0
   -3.3730    0.7443    0.0911 C   0  0  1  0  0  0  0  0  0  0  0  0
   -3.6688   -0.2886    1.2461 C   0  0  2  0  0  0  0  0  0  0  0  0
   -2.4310   -0.2784    2.0261 N   0  0  0  0  0  0  0  0  0  0  0  0
   -1.5646    0.3092    1.3165 C   0  0  0  0  0  0  0  0  0  0  0  0
   -1.9480    0.8433    0.1392 O   0  0  0  0  0  0  0  0  0  0  0  0
   -3.8365    0.3676   -1.2868 C   0  0  0  0  0  0  0  0  0  0  0  0
   -3.9941   -1.6864    0.7595 C   0  0  0  0  0  0  0  0  0  0  0  0
    2.6845   -1.4928   -1.4541 C   0  0  0  0  0  0  0  0  0  0  0  0
    3.1774    1.3849   -1.7515 C   0  0  0  0  0  0  0  0  0  0  0  0
    4.2021    1.1327   -0.8327 C   0  0  0  0  0  0  0  0  0  0  0  0
    5.5176    1.4578   -1.1450 C   0  0  0  0  0  0  0  0  0  0  0  0
    5.8243    2.0371   -2.3783 C   0  0  0  0  0  0  0  0  0  0  0  0
    4.8073    2.2973   -3.2933 C   0  0  0  0  0  0  0  0  0  0  0  0
    3.4867    1.9749   -2.9770 C   0  0  0  0  0  0  0  0  0  0  0  0
    3.4632   -1.6228   -2.6097 C   0  0  0  0  0  0  0  0  0  0  0  0
    4.6456   -2.3554   -2.5913 C   0  0  0  0  0  0  0  0  0  0  0  0
    5.0591   -2.9817   -1.4139 C   0  0  0  0  0  0  0  0  0  0  0  0
    4.2764   -2.8776   -0.2668 C   0  0  0  0  0  0  0  0  0  0  0  0
    3.0915   -2.1385   -0.2856 C   0  0  0  0  0  0  0  0  0  0  0  0
   -2.9798   -2.5821    0.4073 C   0  0  0  0  0  0  0  0  0  0  0  0
   -3.2987   -3.8349   -0.1138 C   0  0  0  0  0  0  0  0  0  0  0  0
   -4.6311   -4.2064   -0.2887 C   0  0  0  0  0  0  0  0  0  0  0  0
   -5.6467   -3.3181    0.0620 C   0  0  0  0  0  0  0  0  0  0  0  0
   -5.3266   -2.0670    0.5851 C   0  0  0  0  0  0  0  0  0  0  0  0
   -5.1033    0.7587   -1.7240 C   0  0  0  0  0  0  0  0  0  0  0  0
   -5.5785    0.3461   -2.9680 C   0  0  0  0  0  0  0  0  0  0  0  0
   -4.7833   -0.4544   -3.7864 C   0  0  0  0  0  0  0  0  0  0  0  0
   -3.5113   -0.8355   -3.3582 C   0  0  0  0  0  0  0  0  0  0  0  0
   -3.0371   -0.4271   -2.1141 C   0  0  0  0  0  0  0  0  0  0  0  0
    0.2964   -0.6303    2.6316 C   0  0  0  0  0  0  0  0  0  0  0  0
    1.7685   -0.8579    2.9022 C   0  0  0  0  0  0  0  0  0  0  0  0
    2.7957    0.0220    2.5477 C   0  0  0  0  0  0  0  0  0  0  0  0
    4.1330   -0.2958    2.7985 C   0  0  0  0  0  0  0  0  0  0  0  0
    4.4707   -1.4988    3.4102 C   0  0  0  0  0  0  0  0  0  0  0  0
    3.4560   -2.3857    3.7741 C   0  0  0  0  0  0  0  0  0  0  0  0
    2.1258   -2.0653    3.5214 C   0  0  0  0  0  0  0  0  0  0  0  0
    0.0859    1.9166    2.2728 C   0  0  0  0  0  0  0  0  0  0  0  0
   -0.8559    2.9812    1.7577 C   0  0  0  0  0  0  0  0  0  0  0  0
   -2.0901    3.1873    2.3845 C   0  0  0  0  0  0  0  0  0  0  0  0
   -2.9852    4.1425    1.9021 C   0  0  0  0  0  0  0  0  0  0  0  0
   -2.6565    4.9029    0.7807 C   0  0  0  0  0  0  0  0  0  0  0  0
   -1.4251    4.7093    0.1542 C   0  0  0  0  0  0  0  0  0  0  0  0
   -0.5307    3.7585    0.6408 C   0  0  0  0  0  0  0  0  0  0  0  0
    0.9005   -0.8238   -2.4102 H   0  0  0  0  0  0  0  0  0  0  0  0
    1.0752    1.4653   -2.1449 H   0  0  0  0  0  0  0  0  0  0  0  0
   -3.7801    1.7292    0.3740 H   0  0  0  0  0  0  0  0  0  0  0  0
   -4.5064    0.0742    1.8582 H   0  0  0  0  0  0  0  0  0  0  0  0
    3.9633    0.6559    0.1198 H   0  0  0  0  0  0  0  0  0  0  0  0
    6.3119    1.2504   -0.4262 H   0  0  0  0  0  0  0  0  0  0  0  0
    6.8579    2.2873   -2.6231 H   0  0  0  0  0  0  0  0  0  0  0  0
    5.0385    2.7576   -4.2551 H   0  0  0  0  0  0  0  0  0  0  0  0
    2.6879    2.1806   -3.6939 H   0  0  0  0  0  0  0  0  0  0  0  0
    3.1496   -1.1244   -3.5309 H   0  0  0  0  0  0  0  0  0  0  0  0
    5.2478   -2.4365   -3.4976 H   0  0  0  0  0  0  0  0  0  0  0  0
    5.9864   -3.5567   -1.3962 H   0  0  0  0  0  0  0  0  0  0  0  0
    4.5822   -3.3723    0.6568 H   0  0  0  0  0  0  0  0  0  0  0  0
    2.4813   -2.0615    0.6152 H   0  0  0  0  0  0  0  0  0  0  0  0
   -1.9319   -2.2947    0.5249 H   0  0  0  0  0  0  0  0  0  0  0  0
   -2.4981   -4.5244   -0.3865 H   0  0  0  0  0  0  0  0  0  0  0  0
   -4.8781   -5.1880   -0.6961 H   0  0  0  0  0  0  0  0  0  0  0  0
   -6.6923   -3.6011   -0.0690 H   0  0  0  0  0  0  0  0  0  0  0  0
   -6.1248   -1.3720    0.8582 H   0  0  0  0  0  0  0  0  0  0  0  0
   -5.7240    1.3929   -1.0855 H   0  0  0  0  0  0  0  0  0  0  0  0
   -6.5703    0.6558   -3.3010 H   0  0  0  0  0  0  0  0  0  0  0  0
   -5.1528   -0.7791   -4.7604 H   0  0  0  0  0  0  0  0  0  0  0  0
   -2.8851   -1.4606   -3.9970 H   0  0  0  0  0  0  0  0  0  0  0  0
   -2.0439   -0.7226   -1.7680 H   0  0  0  0  0  0  0  0  0  0  0  0
   -0.2437   -0.4536    3.5747 H   0  0  0  0  0  0  0  0  0  0  0  0
   -0.1163   -1.5673    2.2319 H   0  0  0  0  0  0  0  0  0  0  0  0
    2.5741    0.9588    2.0386 H   0  0  0  0  0  0  0  0  0  0  0  0
    4.9150    0.4070    2.5041 H   0  0  0  0  0  0  0  0  0  0  0  0
    5.5159   -1.7464    3.6010 H   0  0  0  0  0  0  0  0  0  0  0  0
    3.7021   -3.3347    4.2536 H   0  0  0  0  0  0  0  0  0  0  0  0
    1.3383   -2.7713    3.7963 H   0  0  0  0  0  0  0  0  0  0  0  0
   -0.0670    1.8054    3.3556 H   0  0  0  0  0  0  0  0  0  0  0  0
    1.1176    2.2515    2.1191 H   0  0  0  0  0  0  0  0  0  0  0  0
   -2.3522    2.5877    3.2600 H   0  0  0  0  0  0  0  0  0  0  0  0
   -3.9405    4.2962    2.4074 H   0  0  0  0  0  0  0  0  0  0  0  0
   -3.3543    5.6503    0.3999 H   0  0  0  0  0  0  0  0  0  0  0  0
   -1.1585    5.3059   -0.7199 H   0  0  0  0  0  0  0  0  0  0  0  0
    0.4297    3.6000    0.1474 H   0  0  0  0  0  0  0  0  0  0  0  0
  1  2  1  0  0  0  0
  1  5  1  0  0  0  0
  2  3  2  0  0  0  0
  2  6  1  0  0  0  0
  3  4  1  0  0  0  0
  4  5  1  0  0  0  0
  4 14  1  0  0  0  0
  4 50  1  6  0  0  0
  5 15  1  0  0  0  0
  5 51  1  6  0  0  0
  6 10  1  0  0  0  0
  6 36  1  0  0  0  0
  6 43  1  0  0  0  0
  7  8  1  0  0  0  0
  7 11  1  0  0  0  0
  7 12  1  0  0  0  0
  7 52  1  1  0  0  0
  8  9  1  0  0  0  0
  8 13  1  0  0  0  0
  8 53  1  1  0  0  0
  9 10  2  0  0  0  0
 10 11  1  0  0  0  0
 12 31  2  0  0  0  0
 12 35  1  0  0  0  0
 13 26  2  0  0  0  0
 13 30  1  0  0  0  0
 14 21  2  0  0  0  0
 14 25  1  0  0  0  0
 15 16  2  0  0  0  0
 15 20  1  0  0  0  0
 16 17  1  0  0  0  0
 16 54  1  0  0  0  0
 17 18  2  0  0  0  0
 17 55  1  0  0  0  0
 18 19  1  0  0  0  0
 18 56  1  0  0  0  0
 19 20  2  0  0  0  0
 19 57  1  0  0  0  0
 20 58  1  0  0  0  0
 21 22  1  0  0  0  0
 21 59  1  0  0  0  0
 22 23  2  0  0  0  0
 22 60  1  0  0  0  0
 23 24  1  0  0  0  0
 23 61  1  0  0  0  0
 24 25  2  0  0  0  0
 24 62  1  0  0  0  0
 25 63  1  0  0  0  0
 26 27  1  0  0  0  0
 26 64  1  0  0  0  0
 27 28  2  0  0  0  0
 27 65  1  0  0  0  0
 28 29  1  0  0  0  0
 28 66  1  0  0  0  0
 29 30  2  0  0  0  0
 29 67  1  0  0  0  0
 30 68  1  0  0  0  0
 31 32  1  0  0  0  0
 31 69  1  0  0  0  0
 32 33  2  0  0  0  0
 32 70  1  0  0  0  0
 33 34  1  0  0  0  0
 33 71  1  0  0  0  0
 34 35  2  0  0  0  0
 34 72  1  0  0  0  0
 35 73  1  0  0  0  0
 36 37  1  0  0  0  0
 36 74  1  0  0  0  0
 36 75  1  0  0  0  0
 37 38  2  0  0  0  0
 37 42  1  0  0  0  0
 38 39  1  0  0  0  0
 38 76  1  0  0  0  0
 39 40  2  0  0  0  0
 39 77  1  0  0  0  0
 40 41  1  0  0  0  0
 40 78  1  0  0  0  0
 41 42  2  0  0  0  0
 41 79  1  0  0  0  0
 42 80  1  0  0  0  0
 43 44  1  0  0  0  0
 43 81  1  0  0  0  0
 43 82  1  0  0  0  0
 44 45  2  0  0  0  0
 44 49  1  0  0  0  0
 45 46  1  0  0  0  0
 45 83  1  0  0  0  0
 46 47  2  0  0  0  0
 46 84  1  0  0  0  0
 47 48  1  0  0  0  0
 47 85  1  0  0  0  0
 48 49  2  0  0  0  0
 48 86  1  0  0  0  0
 49 87  1  0  0  0  0
M  END
$$$$
