Title Card Required
 OpenBabel03192317573D

 43 46  0  0  1  0  0  0  0  0999 V2000
   -0.9951   -0.6306    0.1170 N   0  0  1  0  0  0  0  0  0  0  0  0
   -1.4694    0.4932   -0.6756 C   0  0  2  0  0  0  0  0  0  0  0  0
   -0.5717    1.7352   -0.5343 C   0  0  2  0  0  0  0  0  0  0  0  0
    0.7826    1.5793   -1.2313 C   0  0  0  0  0  0  0  0  0  0  0  0
    1.5525    0.5112   -0.6458 N   0  0  2  0  0  0  0  0  0  0  0  0
    1.7474    0.6365    0.7909 C   0  0  1  0  0  0  0  0  0  0  0  0
    0.4071    0.8272    1.5257 C   0  0  2  0  0  0  0  0  0  0  0  0
   -0.5417   -0.3727    1.4624 C   0  0  0  0  0  0  0  0  0  0  0  0
   -2.9523    0.8387   -0.3786 C   0  0  0  0  0  0  0  0  0  0  0  0
   -3.7279   -0.4052    0.0771 C   0  0  0  0  0  0  0  0  0  0  0  0
   -3.1579   -1.6494   -0.5969 C   0  0  0  0  0  0  0  0  0  0  0  0
   -1.7144   -1.8726   -0.1150 C   0  0  0  0  0  0  0  0  0  0  0  0
    2.5619   -0.5705    1.3091 C   0  0  0  0  0  0  0  0  0  0  0  0
    2.5148   -1.7233    0.3096 C   0  0  0  0  0  0  0  0  0  0  0  0
    3.1734   -1.2812   -1.0019 C   0  0  0  0  0  0  0  0  0  0  0  0
    2.7819    0.1754   -1.3266 C   0  0  0  0  0  0  0  0  0  0  0  0
   -0.3150    2.0398    0.9426 C   0  0  0  0  0  0  0  0  0  0  0  0
    0.6473    1.0061    2.5865 H   0  0  0  0  0  0  0  0  0  0  0  0
    2.3349    1.5655    0.9997 H   0  0  0  0  0  0  0  0  0  0  0  0
   -1.1007    2.5772   -1.0099 H   0  0  0  0  0  0  0  0  0  0  0  0
   -1.4077    0.1675   -1.7302 H   0  0  0  0  0  0  0  0  0  0  0  0
    1.3176    2.5591   -1.1761 H   0  0  0  0  0  0  0  0  0  0  0  0
    0.6329    1.3555   -2.3001 H   0  0  0  0  0  0  0  0  0  0  0  0
   -1.3761   -0.1750    2.1786 H   0  0  0  0  0  0  0  0  0  0  0  0
   -0.0297   -1.2763    1.8341 H   0  0  0  0  0  0  0  0  0  0  0  0
   -3.0228    1.6266    0.3877 H   0  0  0  0  0  0  0  0  0  0  0  0
   -3.4033    1.2572   -1.2936 H   0  0  0  0  0  0  0  0  0  0  0  0
   -4.8012   -0.2913   -0.1323 H   0  0  0  0  0  0  0  0  0  0  0  0
   -3.6329   -0.5252    1.1696 H   0  0  0  0  0  0  0  0  0  0  0  0
   -3.1825   -1.5136   -1.6908 H   0  0  0  0  0  0  0  0  0  0  0  0
   -3.7631   -2.5418   -0.3798 H   0  0  0  0  0  0  0  0  0  0  0  0
   -1.1729   -2.5128   -0.8386 H   0  0  0  0  0  0  0  0  0  0  0  0
   -1.7454   -2.4319    0.8344 H   0  0  0  0  0  0  0  0  0  0  0  0
    3.6123   -0.2737    1.4608 H   0  0  0  0  0  0  0  0  0  0  0  0
    2.1835   -0.8781    2.2964 H   0  0  0  0  0  0  0  0  0  0  0  0
    3.0161   -2.6148    0.7141 H   0  0  0  0  0  0  0  0  0  0  0  0
    1.4635   -1.9828    0.1153 H   0  0  0  0  0  0  0  0  0  0  0  0
    2.8607   -1.9488   -1.8178 H   0  0  0  0  0  0  0  0  0  0  0  0
    4.2689   -1.3618   -0.9228 H   0  0  0  0  0  0  0  0  0  0  0  0
    2.6307    0.3021   -2.4084 H   0  0  0  0  0  0  0  0  0  0  0  0
    3.6022    0.8747   -1.0417 H   0  0  0  0  0  0  0  0  0  0  0  0
   -1.2529    2.2273    1.4884 H   0  0  0  0  0  0  0  0  0  0  0  0
    0.3070    2.9445    1.0355 H   0  0  0  0  0  0  0  0  0  0  0  0
  1  2  1  0  0  0  0
  1  8  1  1  0  0  0
  1 12  1  0  0  0  0
  2  3  1  0  0  0  0
  2  9  1  0  0  0  0
  2 21  1  6  0  0  0
  3  4  1  0  0  0  0
  3 17  1  0  0  0  0
  3 20  1  6  0  0  0
  4 22  1  0  0  0  0
  4 23  1  0  0  0  0
  5  4  1  6  0  0  0
  5  6  1  0  0  0  0
  5 16  1  0  0  0  0
  6  7  1  0  0  0  0
  6 13  1  0  0  0  0
  6 19  1  1  0  0  0
  7  8  1  0  0  0  0
  7 17  1  0  0  0  0
  7 18  1  1  0  0  0
  8 24  1  0  0  0  0
  8 25  1  0  0  0  0
  9 10  1  0  0  0  0
  9 26  1  0  0  0  0
  9 27  1  0  0  0  0
 10 11  1  0  0  0  0
 10 28  1  0  0  0  0
 10 29  1  0  0  0  0
 11 12  1  0  0  0  0
 11 30  1  0  0  0  0
 11 31  1  0  0  0  0
 12 32  1  0  0  0  0
 12 33  1  0  0  0  0
 13 14  1  0  0  0  0
 13 34  1  0  0  0  0
 13 35  1  0  0  0  0
 14 15  1  0  0  0  0
 14 36  1  0  0  0  0
 14 37  1  0  0  0  0
 15 16  1  0  0  0  0
 15 38  1  0  0  0  0
 15 39  1  0  0  0  0
 16 40  1  0  0  0  0
 16 41  1  0  0  0  0
 17 42  1  0  0  0  0
 17 43  1  0  0  0  0
M  END
$$$$
