Title Card Required
 OpenBabel03192317483D

 39 40  0  0  1  0  0  0  0  0999 V2000
   -0.7346   -0.0586    0.2031 N   0  0  0  0  0  0  0  0  0  0  0  0
   -1.5801    0.9154    0.6801 C   0  0  0  0  0  0  0  0  0  0  0  0
   -1.1086    2.3835    1.3055 S   0  0  0  0  0  0  0  0  0  0  0  0
   -2.8877    0.5671    0.6244 N   0  0  0  0  0  0  0  0  0  0  0  0
   -3.4573   -0.5759   -0.0541 C   0  0  0  0  0  0  0  0  0  0  0  0
   -5.5516    0.7021   -0.2392 N   0  0  0  0  0  0  0  0  0  0  0  0
   -4.9614   -0.5751    0.1485 C   0  0  1  0  0  0  0  0  0  0  0  0
   -5.7308   -1.6592   -0.6311 C   0  0  0  0  0  0  0  0  0  0  0  0
   -7.1242   -1.0259   -0.8572 C   0  0  0  0  0  0  0  0  0  0  0  0
   -6.9831    0.4126   -0.2955 C   0  0  0  0  0  0  0  0  0  0  0  0
    0.6648   -0.0641    0.1053 C   0  0  0  0  0  0  0  0  0  0  0  0
    1.3055   -1.3091    0.1999 C   0  0  0  0  0  0  0  0  0  0  0  0
    2.6814   -1.4064    0.0551 C   0  0  0  0  0  0  0  0  0  0  0  0
    3.4599   -0.2712   -0.1709 C   0  0  0  0  0  0  0  0  0  0  0  0
    2.8177    0.9565   -0.2630 C   0  0  0  0  0  0  0  0  0  0  0  0
    1.4333    1.0776   -0.1373 C   0  0  0  0  0  0  0  0  0  0  0  0
    3.6079    2.2149   -0.5215 C   0  0  0  0  0  0  0  0  0  0  0  0
    4.9080    1.9598   -0.6744 F   0  0  0  0  0  0  0  0  0  0  0  0
    3.1847    2.8312   -1.6266 F   0  0  0  0  0  0  0  0  0  0  0  0
    3.4819    3.0818    0.4818 F   0  0  0  0  0  0  0  0  0  0  0  0
    3.3683   -2.7432    0.1535 C   0  0  0  0  0  0  0  0  0  0  0  0
    2.4965   -3.7406    0.3177 F   0  0  0  0  0  0  0  0  0  0  0  0
    4.0753   -3.0043   -0.9475 F   0  0  0  0  0  0  0  0  0  0  0  0
    4.2182   -2.7793    1.1800 F   0  0  0  0  0  0  0  0  0  0  0  0
   -1.1535   -0.9648    0.0319 H   0  0  0  0  0  0  0  0  0  0  0  0
   -3.5398    1.3054    0.8779 H   0  0  0  0  0  0  0  0  0  0  0  0
   -3.2283   -0.5527   -1.1386 H   0  0  0  0  0  0  0  0  0  0  0  0
   -3.0565   -1.5241    0.3471 H   0  0  0  0  0  0  0  0  0  0  0  0
   -5.2252    0.9363   -1.1797 H   0  0  0  0  0  0  0  0  0  0  0  0
   -5.1585   -0.7023    1.2282 H   0  0  0  0  0  0  0  0  0  0  0  0
   -5.2275   -1.8504   -1.5921 H   0  0  0  0  0  0  0  0  0  0  0  0
   -5.7738   -2.6125   -0.0872 H   0  0  0  0  0  0  0  0  0  0  0  0
   -7.3755   -1.0086   -1.9266 H   0  0  0  0  0  0  0  0  0  0  0  0
   -7.9226   -1.5820   -0.3482 H   0  0  0  0  0  0  0  0  0  0  0  0
   -7.5110    1.1711   -0.8871 H   0  0  0  0  0  0  0  0  0  0  0  0
   -7.3829    0.4596    0.7291 H   0  0  0  0  0  0  0  0  0  0  0  0
    0.7223   -2.2111    0.3935 H   0  0  0  0  0  0  0  0  0  0  0  0
    4.5422   -0.3449   -0.2784 H   0  0  0  0  0  0  0  0  0  0  0  0
    0.9542    2.0505   -0.2253 H   0  0  0  0  0  0  0  0  0  0  0  0
  1  2  1  0  0  0  0
  1 11  1  0  0  0  0
  1 25  1  0  0  0  0
  2  3  2  0  0  0  0
  2  4  1  0  0  0  0
  4  5  1  0  0  0  0
  4 26  1  0  0  0  0
  5  7  1  0  0  0  0
  5 27  1  0  0  0  0
  5 28  1  0  0  0  0
  6  7  1  0  0  0  0
  6 10  1  0  0  0  0
  6 29  1  0  0  0  0
  7  8  1  0  0  0  0
  7 30  1  1  0  0  0
  8  9  1  0  0  0  0
  8 31  1  0  0  0  0
  8 32  1  0  0  0  0
  9 10  1  0  0  0  0
  9 33  1  0  0  0  0
  9 34  1  0  0  0  0
 10 35  1  0  0  0  0
 10 36  1  0  0  0  0
 11 12  2  0  0  0  0
 11 16  1  0  0  0  0
 12 13  1  0  0  0  0
 12 37  1  0  0  0  0
 13 14  2  0  0  0  0
 13 21  1  0  0  0  0
 14 15  1  0  0  0  0
 14 38  1  0  0  0  0
 15 16  2  0  0  0  0
 15 17  1  0  0  0  0
 16 39  1  0  0  0  0
 17 18  1  0  0  0  0
 17 19  1  0  0  0  0
 17 20  1  0  0  0  0
 21 22  1  0  0  0  0
 21 23  1  0  0  0  0
 21 24  1  0  0  0  0
M  END
$$$$
