Title Card Required
 OpenBabel03192317483D

186191  0  0  0  0  0  0  0  0999 V2000
   -0.6203   -2.3316   -0.5688 C   0  0  0  0  0  0  0  0  0  0  0  0
   -1.7588   -1.7408   -0.0115 C   0  0  0  0  0  0  0  0  0  0  0  0
   -2.2042   -2.1480    1.2556 C   0  0  0  0  0  0  0  0  0  0  0  0
   -1.5022   -3.1172    1.9600 C   0  0  0  0  0  0  0  0  0  0  0  0
   -0.3727   -3.7268    1.4086 C   0  0  0  0  0  0  0  0  0  0  0  0
    0.0557   -3.3534    0.1330 C   0  0  0  0  0  0  0  0  0  0  0  0
   -0.0454   -1.8774   -1.8690 C   0  0  0  0  0  0  0  0  0  0  0  0
    1.0314   -0.9824   -1.8976 C   0  0  0  0  0  0  0  0  0  0  0  0
    1.5845   -0.5982   -3.1295 C   0  0  0  0  0  0  0  0  0  0  0  0
    1.0509   -1.0976   -4.3115 C   0  0  0  0  0  0  0  0  0  0  0  0
   -0.0376   -1.9723   -4.2961 C   0  0  0  0  0  0  0  0  0  0  0  0
   -0.5861   -2.3648   -3.0737 C   0  0  0  0  0  0  0  0  0  0  0  0
   -1.6489   -3.1896   -2.9500 O   0  0  0  0  0  0  0  0  0  0  0  0
   -2.2848   -3.6395   -4.1163 C   0  0  0  0  0  0  0  0  0  0  0  0
    1.1101   -3.9105   -0.5006 O   0  0  0  0  0  0  0  0  0  0  0  0
    1.8999   -4.8336    0.2029 C   0  0  0  0  0  0  0  0  0  0  0  0
    1.5766   -0.3174   -0.2575 P   0  0  0  0  0  0  0  0  0  0  0  0
    2.9246   -1.4699    0.2292 C   0  0  0  0  0  0  0  0  0  0  0  0
    3.7617   -2.1080   -0.6788 C   0  0  0  0  0  0  0  0  0  0  0  0
    4.8171   -2.9331   -0.2723 C   0  0  0  0  0  0  0  0  0  0  0  0
    5.0436   -3.0461    1.1217 C   0  0  0  0  0  0  0  0  0  0  0  0
    4.1563   -2.4872    2.0738 C   0  0  0  0  0  0  0  0  0  0  0  0
    3.1061   -1.6989    1.5919 C   0  0  0  0  0  0  0  0  0  0  0  0
    6.1118   -3.7579    1.6106 O   0  0  0  0  0  0  0  0  0  0  0  0
    7.3766   -3.1325    1.5754 C   0  0  0  0  0  0  0  0  0  0  0  0
    4.2738   -2.7832    3.5804 C   0  0  0  0  0  0  0  0  0  0  0  0
    5.5942   -2.2553    4.1665 C   0  0  0  0  0  0  0  0  0  0  0  0
    3.1338   -2.1184    4.3654 C   0  0  0  0  0  0  0  0  0  0  0  0
    4.1706   -4.3013    3.8129 C   0  0  0  0  0  0  0  0  0  0  0  0
    5.6283   -3.6559   -1.3701 C   0  0  0  0  0  0  0  0  0  0  0  0
    4.7307   -3.9266   -2.5962 C   0  0  0  0  0  0  0  0  0  0  0  0
    6.7809   -2.7548   -1.8488 C   0  0  0  0  0  0  0  0  0  0  0  0
    6.1574   -5.0295   -0.9207 C   0  0  0  0  0  0  0  0  0  0  0  0
    2.5493    1.1650   -0.7446 C   0  0  0  0  0  0  0  0  0  0  0  0
    1.9447    2.1596   -1.5159 C   0  0  0  0  0  0  0  0  0  0  0  0
    2.5964    3.3550   -1.8333 C   0  0  0  0  0  0  0  0  0  0  0  0
    3.8504    3.5916   -1.2195 C   0  0  0  0  0  0  0  0  0  0  0  0
    4.5144    2.5975   -0.4713 C   0  0  0  0  0  0  0  0  0  0  0  0
    3.8349    1.3908   -0.2629 C   0  0  0  0  0  0  0  0  0  0  0  0
    4.4227    4.8326   -1.3375 O   0  0  0  0  0  0  0  0  0  0  0  0
    3.9768    5.7402   -0.3608 C   0  0  0  0  0  0  0  0  0  0  0  0
    5.9277    2.7021    0.1428 C   0  0  0  0  0  0  0  0  0  0  0  0
    5.8014    2.6604    1.6760 C   0  0  0  0  0  0  0  0  0  0  0  0
    6.7545    1.4870   -0.3271 C   0  0  0  0  0  0  0  0  0  0  0  0
    6.7403    3.9479   -0.2413 C   0  0  0  0  0  0  0  0  0  0  0  0
    1.9135    4.2629   -2.8814 C   0  0  0  0  0  0  0  0  0  0  0  0
    0.5840    4.7975   -2.3288 C   0  0  0  0  0  0  0  0  0  0  0  0
    2.7461    5.4526   -3.3820 C   0  0  0  0  0  0  0  0  0  0  0  0
    1.6213    3.3928   -4.1230 C   0  0  0  0  0  0  0  0  0  0  0  0
   -2.6229   -0.4164   -0.9869 P   0  0  0  0  0  0  0  0  0  0  0  0
   -4.3492   -0.7055   -0.4001 C   0  0  0  0  0  0  0  0  0  0  0  0
   -4.9841    0.0221    0.5972 C   0  0  0  0  0  0  0  0  0  0  0  0
   -6.2998   -0.2539    1.0045 C   0  0  0  0  0  0  0  0  0  0  0  0
   -6.9919   -1.2520    0.2930 C   0  0  0  0  0  0  0  0  0  0  0  0
   -6.3453   -2.0902   -0.6515 C   0  0  0  0  0  0  0  0  0  0  0  0
   -5.0295   -1.7783   -0.9879 C   0  0  0  0  0  0  0  0  0  0  0  0
   -8.3379   -1.4395    0.5009 O   0  0  0  0  0  0  0  0  0  0  0  0
   -9.1418   -0.4826   -0.1549 C   0  0  0  0  0  0  0  0  0  0  0  0
   -7.0280   -3.3512   -1.2121 C   0  0  0  0  0  0  0  0  0  0  0  0
   -8.2890   -3.0334   -2.0336 C   0  0  0  0  0  0  0  0  0  0  0  0
   -6.0758   -4.1320   -2.1282 C   0  0  0  0  0  0  0  0  0  0  0  0
   -7.4040   -4.2687   -0.0348 C   0  0  0  0  0  0  0  0  0  0  0  0
   -6.8219    0.5217    2.2351 C   0  0  0  0  0  0  0  0  0  0  0  0
   -5.7618    0.4004    3.3521 C   0  0  0  0  0  0  0  0  0  0  0  0
   -6.9913    2.0080    1.8808 C   0  0  0  0  0  0  0  0  0  0  0  0
   -8.1286   -0.0109    2.8449 C   0  0  0  0  0  0  0  0  0  0  0  0
   -2.1659    1.1007   -0.0427 C   0  0  0  0  0  0  0  0  0  0  0  0
   -1.2852    1.1083    1.0326 C   0  0  0  0  0  0  0  0  0  0  0  0
   -0.9033    2.2878    1.6921 C   0  0  0  0  0  0  0  0  0  0  0  0
   -1.4450    3.4961    1.2025 C   0  0  0  0  0  0  0  0  0  0  0  0
   -2.4498    3.5161    0.1996 C   0  0  0  0  0  0  0  0  0  0  0  0
   -2.7525    2.3096   -0.4331 C   0  0  0  0  0  0  0  0  0  0  0  0
   -1.0633    4.7072    1.7284 O   0  0  0  0  0  0  0  0  0  0  0  0
    0.2188    5.1947    1.3981 C   0  0  0  0  0  0  0  0  0  0  0  0
   -3.2510    4.7922   -0.1234 C   0  0  0  0  0  0  0  0  0  0  0  0
   -4.3788    4.5027   -1.1235 C   0  0  0  0  0  0  0  0  0  0  0  0
   -3.9084    5.3135    1.1677 C   0  0  0  0  0  0  0  0  0  0  0  0
   -2.3735    5.8895   -0.7420 C   0  0  0  0  0  0  0  0  0  0  0  0
    0.0092    2.1705    2.9367 C   0  0  0  0  0  0  0  0  0  0  0  0
    1.4956    2.3398    2.5715 C   0  0  0  0  0  0  0  0  0  0  0  0
   -0.3956    3.1619    4.0418 C   0  0  0  0  0  0  0  0  0  0  0  0
   -0.1216    0.7625    3.5523 C   0  0  0  0  0  0  0  0  0  0  0  0
   -3.0948   -1.6910    1.6918 H   0  0  0  0  0  0  0  0  0  0  0  0
   -1.8380   -3.4179    2.9540 H   0  0  0  0  0  0  0  0  0  0  0  0
    0.1559   -4.4943    1.9722 H   0  0  0  0  0  0  0  0  0  0  0  0
    2.4229    0.0999   -3.1595 H   0  0  0  0  0  0  0  0  0  0  0  0
    1.4796   -0.7976   -5.2694 H   0  0  0  0  0  0  0  0  0  0  0  0
   -0.4485   -2.3376   -5.2360 H   0  0  0  0  0  0  0  0  0  0  0  0
   -2.6656   -2.7960   -4.7160 H   0  0  0  0  0  0  0  0  0  0  0  0
   -1.6062   -4.2460   -4.7390 H   0  0  0  0  0  0  0  0  0  0  0  0
   -3.1270   -4.2627   -3.7947 H   0  0  0  0  0  0  0  0  0  0  0  0
    2.3430   -4.3739    1.1029 H   0  0  0  0  0  0  0  0  0  0  0  0
    1.3178   -5.7251    0.4911 H   0  0  0  0  0  0  0  0  0  0  0  0
    2.7083   -5.1367   -0.4721 H   0  0  0  0  0  0  0  0  0  0  0  0
    3.5649   -1.9644   -1.7401 H   0  0  0  0  0  0  0  0  0  0  0  0
    2.4030   -1.2404    2.2865 H   0  0  0  0  0  0  0  0  0  0  0  0
    7.9440   -3.4258    0.6793 H   0  0  0  0  0  0  0  0  0  0  0  0
    7.2814   -2.0353    1.6006 H   0  0  0  0  0  0  0  0  0  0  0  0
    7.9413   -3.4617    2.4587 H   0  0  0  0  0  0  0  0  0  0  0  0
    5.7544   -1.2014    3.8911 H   0  0  0  0  0  0  0  0  0  0  0  0
    5.5591   -2.3158    5.2651 H   0  0  0  0  0  0  0  0  0  0  0  0
    6.4539   -2.8449    3.8329 H   0  0  0  0  0  0  0  0  0  0  0  0
    2.1457   -2.4547    4.0182 H   0  0  0  0  0  0  0  0  0  0  0  0
    3.2266   -2.3875    5.4273 H   0  0  0  0  0  0  0  0  0  0  0  0
    3.1702   -1.0209    4.2931 H   0  0  0  0  0  0  0  0  0  0  0  0
    3.1919   -4.6755    3.4737 H   0  0  0  0  0  0  0  0  0  0  0  0
    4.9606   -4.8412    3.2765 H   0  0  0  0  0  0  0  0  0  0  0  0
    4.2604   -4.5218    4.8881 H   0  0  0  0  0  0  0  0  0  0  0  0
    4.4659   -3.0103   -3.1399 H   0  0  0  0  0  0  0  0  0  0  0  0
    5.2727   -4.5734   -3.3008 H   0  0  0  0  0  0  0  0  0  0  0  0
    3.7943   -4.4302   -2.3129 H   0  0  0  0  0  0  0  0  0  0  0  0
    7.4834   -2.5045   -1.0443 H   0  0  0  0  0  0  0  0  0  0  0  0
    7.3435   -3.2562   -2.6520 H   0  0  0  0  0  0  0  0  0  0  0  0
    6.3820   -1.8098   -2.2469 H   0  0  0  0  0  0  0  0  0  0  0  0
    6.9422   -4.9728   -0.1614 H   0  0  0  0  0  0  0  0  0  0  0  0
    5.3425   -5.6423   -0.5058 H   0  0  0  0  0  0  0  0  0  0  0  0
    6.5682   -5.5565   -1.7946 H   0  0  0  0  0  0  0  0  0  0  0  0
    0.9432    1.9759   -1.9154 H   0  0  0  0  0  0  0  0  0  0  0  0
    4.3196    0.6065    0.3192 H   0  0  0  0  0  0  0  0  0  0  0  0
    2.8871    5.9067   -0.4373 H   0  0  0  0  0  0  0  0  0  0  0  0
    4.1987    5.3738    0.6576 H   0  0  0  0  0  0  0  0  0  0  0  0
    4.5000    6.6909   -0.5274 H   0  0  0  0  0  0  0  0  0  0  0  0
    5.3124    1.7355    2.0165 H   0  0  0  0  0  0  0  0  0  0  0  0
    6.7980    2.7147    2.1416 H   0  0  0  0  0  0  0  0  0  0  0  0
    5.2052    3.5100    2.0426 H   0  0  0  0  0  0  0  0  0  0  0  0
    6.8584    1.4926   -1.4224 H   0  0  0  0  0  0  0  0  0  0  0  0
    7.7624    1.5342    0.1130 H   0  0  0  0  0  0  0  0  0  0  0  0
    6.3056    0.5276   -0.0344 H   0  0  0  0  0  0  0  0  0  0  0  0
    6.7964    4.0806   -1.3290 H   0  0  0  0  0  0  0  0  0  0  0  0
    6.3329    4.8692    0.1921 H   0  0  0  0  0  0  0  0  0  0  0  0
    7.7614    3.8227    0.1503 H   0  0  0  0  0  0  0  0  0  0  0  0
    0.7504    5.4979   -1.4963 H   0  0  0  0  0  0  0  0  0  0  0  0
    0.0417    5.3423   -3.1179 H   0  0  0  0  0  0  0  0  0  0  0  0
   -0.0683    3.9891   -1.9624 H   0  0  0  0  0  0  0  0  0  0  0  0
    3.7381    5.1379   -3.7301 H   0  0  0  0  0  0  0  0  0  0  0  0
    2.2099    5.9126   -4.2262 H   0  0  0  0  0  0  0  0  0  0  0  0
    2.8843    6.2283   -2.6195 H   0  0  0  0  0  0  0  0  0  0  0  0
    2.5574    2.9852   -4.5344 H   0  0  0  0  0  0  0  0  0  0  0  0
    0.9521    2.5500   -3.9022 H   0  0  0  0  0  0  0  0  0  0  0  0
    1.1427    4.0064   -4.9010 H   0  0  0  0  0  0  0  0  0  0  0  0
   -4.4321    0.8217    1.0937 H   0  0  0  0  0  0  0  0  0  0  0  0
   -4.4927   -2.3788   -1.7236 H   0  0  0  0  0  0  0  0  0  0  0  0
   -8.8984    0.5406    0.1721 H   0  0  0  0  0  0  0  0  0  0  0  0
   -9.0112   -0.5354   -1.2477 H   0  0  0  0  0  0  0  0  0  0  0  0
  -10.1867   -0.7049    0.0983 H   0  0  0  0  0  0  0  0  0  0  0  0
   -8.0845   -2.2650   -2.7952 H   0  0  0  0  0  0  0  0  0  0  0  0
   -8.6224   -3.9437   -2.5557 H   0  0  0  0  0  0  0  0  0  0  0  0
   -9.1142   -2.6979   -1.3960 H   0  0  0  0  0  0  0  0  0  0  0  0
   -5.1536   -4.4245   -1.6052 H   0  0  0  0  0  0  0  0  0  0  0  0
   -6.5778   -5.0501   -2.4667 H   0  0  0  0  0  0  0  0  0  0  0  0
   -5.8015   -3.5493   -3.0208 H   0  0  0  0  0  0  0  0  0  0  0  0
   -6.5052   -4.5535    0.5324 H   0  0  0  0  0  0  0  0  0  0  0  0
   -8.1053   -3.7672    0.6440 H   0  0  0  0  0  0  0  0  0  0  0  0
   -7.8781   -5.1883   -0.4127 H   0  0  0  0  0  0  0  0  0  0  0  0
   -4.7950    0.8389    3.0712 H   0  0  0  0  0  0  0  0  0  0  0  0
   -6.1145    0.9243    4.2530 H   0  0  0  0  0  0  0  0  0  0  0  0
   -5.5963   -0.6564    3.6107 H   0  0  0  0  0  0  0  0  0  0  0  0
   -7.3014    2.5781    2.7704 H   0  0  0  0  0  0  0  0  0  0  0  0
   -6.0476    2.4373    1.5122 H   0  0  0  0  0  0  0  0  0  0  0  0
   -7.7537    2.1529    1.1009 H   0  0  0  0  0  0  0  0  0  0  0  0
   -9.0105    0.1978    2.2298 H   0  0  0  0  0  0  0  0  0  0  0  0
   -8.0808   -1.0942    3.0157 H   0  0  0  0  0  0  0  0  0  0  0  0
   -8.2824    0.4874    3.8141 H   0  0  0  0  0  0  0  0  0  0  0  0
   -0.8823    0.1598    1.3718 H   0  0  0  0  0  0  0  0  0  0  0  0
   -3.4865    2.2908   -1.2395 H   0  0  0  0  0  0  0  0  0  0  0  0
    0.8589    5.2241    2.2940 H   0  0  0  0  0  0  0  0  0  0  0  0
    0.7016    4.5680    0.6318 H   0  0  0  0  0  0  0  0  0  0  0  0
    0.1237    6.2215    1.0114 H   0  0  0  0  0  0  0  0  0  0  0  0
   -5.0710    3.7336   -0.7495 H   0  0  0  0  0  0  0  0  0  0  0  0
   -4.9559    5.4243   -1.2875 H   0  0  0  0  0  0  0  0  0  0  0  0
   -3.9906    4.1746   -2.0990 H   0  0  0  0  0  0  0  0  0  0  0  0
   -3.1569    5.5772    1.9207 H   0  0  0  0  0  0  0  0  0  0  0  0
   -4.5119    6.2069    0.9430 H   0  0  0  0  0  0  0  0  0  0  0  0
   -4.5771    4.5494    1.5923 H   0  0  0  0  0  0  0  0  0  0  0  0
   -1.5925    6.2254   -0.0526 H   0  0  0  0  0  0  0  0  0  0  0  0
   -1.9000    5.5333   -1.6678 H   0  0  0  0  0  0  0  0  0  0  0  0
   -2.9966    6.7619   -0.9938 H   0  0  0  0  0  0  0  0  0  0  0  0
    1.7262    3.3140    2.1256 H   0  0  0  0  0  0  0  0  0  0  0  0
    2.1145    2.2260    3.4766 H   0  0  0  0  0  0  0  0  0  0  0  0
    1.7970    1.5675    1.8505 H   0  0  0  0  0  0  0  0  0  0  0  0
   -1.4675    3.0640    4.2718 H   0  0  0  0  0  0  0  0  0  0  0  0
    0.1722    2.9320    4.9561 H   0  0  0  0  0  0  0  0  0  0  0  0
   -0.2098    4.2074    3.7783 H   0  0  0  0  0  0  0  0  0  0  0  0
   -1.1718    0.5064    3.7589 H   0  0  0  0  0  0  0  0  0  0  0  0
    0.3011   -0.0157    2.8998 H   0  0  0  0  0  0  0  0  0  0  0  0
    0.4345    0.7353    4.5008 H   0  0  0  0  0  0  0  0  0  0  0  0
  1  2  2  0  0  0  0
  1  6  1  0  0  0  0
  1  7  1  0  0  0  0
  2  3  1  0  0  0  0
  2 50  1  0  0  0  0
  3  4  2  0  0  0  0
  3 83  1  0  0  0  0
  4  5  1  0  0  0  0
  4 84  1  0  0  0  0
  5  6  2  0  0  0  0
  5 85  1  0  0  0  0
  6 15  1  0  0  0  0
  7  8  2  0  0  0  0
  7 12  1  0  0  0  0
  8  9  1  0  0  0  0
  8 17  1  0  0  0  0
  9 10  2  0  0  0  0
  9 86  1  0  0  0  0
 10 11  1  0  0  0  0
 10 87  1  0  0  0  0
 11 12  2  0  0  0  0
 11 88  1  0  0  0  0
 12 13  1  0  0  0  0
 13 14  1  0  0  0  0
 14 89  1  0  0  0  0
 14 90  1  0  0  0  0
 14 91  1  0  0  0  0
 15 16  1  0  0  0  0
 16 92  1  0  0  0  0
 16 93  1  0  0  0  0
 16 94  1  0  0  0  0
 17 18  1  0  0  0  0
 17 34  1  0  0  0  0
 18 19  2  0  0  0  0
 18 23  1  0  0  0  0
 19 20  1  0  0  0  0
 19 95  1  0  0  0  0
 20 21  2  0  0  0  0
 20 30  1  0  0  0  0
 21 22  1  0  0  0  0
 21 24  1  0  0  0  0
 22 23  2  0  0  0  0
 22 26  1  0  0  0  0
 23 96  1  0  0  0  0
 24 25  1  0  0  0  0
 25 97  1  0  0  0  0
 25 98  1  0  0  0  0
 25 99  1  0  0  0  0
 26 27  1  0  0  0  0
 26 28  1  0  0  0  0
 26 29  1  0  0  0  0
 27100  1  0  0  0  0
 27101  1  0  0  0  0
 27102  1  0  0  0  0
 28103  1  0  0  0  0
 28104  1  0  0  0  0
 28105  1  0  0  0  0
 29106  1  0  0  0  0
 29107  1  0  0  0  0
 29108  1  0  0  0  0
 30 31  1  0  0  0  0
 30 32  1  0  0  0  0
 30 33  1  0  0  0  0
 31109  1  0  0  0  0
 31110  1  0  0  0  0
 31111  1  0  0  0  0
 32112  1  0  0  0  0
 32113  1  0  0  0  0
 32114  1  0  0  0  0
 33115  1  0  0  0  0
 33116  1  0  0  0  0
 33117  1  0  0  0  0
 34 35  2  0  0  0  0
 34 39  1  0  0  0  0
 35 36  1  0  0  0  0
 35118  1  0  0  0  0
 36 37  2  0  0  0  0
 36 46  1  0  0  0  0
 37 38  1  0  0  0  0
 37 40  1  0  0  0  0
 38 39  2  0  0  0  0
 38 42  1  0  0  0  0
 39119  1  0  0  0  0
 40 41  1  0  0  0  0
 41120  1  0  0  0  0
 41121  1  0  0  0  0
 41122  1  0  0  0  0
 42 43  1  0  0  0  0
 42 44  1  0  0  0  0
 42 45  1  0  0  0  0
 43123  1  0  0  0  0
 43124  1  0  0  0  0
 43125  1  0  0  0  0
 44126  1  0  0  0  0
 44127  1  0  0  0  0
 44128  1  0  0  0  0
 45129  1  0  0  0  0
 45130  1  0  0  0  0
 45131  1  0  0  0  0
 46 47  1  0  0  0  0
 46 48  1  0  0  0  0
 46 49  1  0  0  0  0
 47132  1  0  0  0  0
 47133  1  0  0  0  0
 47134  1  0  0  0  0
 48135  1  0  0  0  0
 48136  1  0  0  0  0
 48137  1  0  0  0  0
 49138  1  0  0  0  0
 49139  1  0  0  0  0
 49140  1  0  0  0  0
 50 51  1  0  0  0  0
 50 67  1  0  0  0  0
 51 52  2  0  0  0  0
 51 56  1  0  0  0  0
 52 53  1  0  0  0  0
 52141  1  0  0  0  0
 53 54  2  0  0  0  0
 53 63  1  0  0  0  0
 54 55  1  0  0  0  0
 54 57  1  0  0  0  0
 55 56  2  0  0  0  0
 55 59  1  0  0  0  0
 56142  1  0  0  0  0
 57 58  1  0  0  0  0
 58143  1  0  0  0  0
 58144  1  0  0  0  0
 58145  1  0  0  0  0
 59 60  1  0  0  0  0
 59 61  1  0  0  0  0
 59 62  1  0  0  0  0
 60146  1  0  0  0  0
 60147  1  0  0  0  0
 60148  1  0  0  0  0
 61149  1  0  0  0  0
 61150  1  0  0  0  0
 61151  1  0  0  0  0
 62152  1  0  0  0  0
 62153  1  0  0  0  0
 62154  1  0  0  0  0
 63 64  1  0  0  0  0
 63 65  1  0  0  0  0
 63 66  1  0  0  0  0
 64155  1  0  0  0  0
 64156  1  0  0  0  0
 64157  1  0  0  0  0
 65158  1  0  0  0  0
 65159  1  0  0  0  0
 65160  1  0  0  0  0
 66161  1  0  0  0  0
 66162  1  0  0  0  0
 66163  1  0  0  0  0
 67 68  2  0  0  0  0
 67 72  1  0  0  0  0
 68 69  1  0  0  0  0
 68164  1  0  0  0  0
 69 70  2  0  0  0  0
 69 79  1  0  0  0  0
 70 71  1  0  0  0  0
 70 73  1  0  0  0  0
 71 72  2  0  0  0  0
 71 75  1  0  0  0  0
 72165  1  0  0  0  0
 73 74  1  0  0  0  0
 74166  1  0  0  0  0
 74167  1  0  0  0  0
 74168  1  0  0  0  0
 75 76  1  0  0  0  0
 75 77  1  0  0  0  0
 75 78  1  0  0  0  0
 76169  1  0  0  0  0
 76170  1  0  0  0  0
 76171  1  0  0  0  0
 77172  1  0  0  0  0
 77173  1  0  0  0  0
 77174  1  0  0  0  0
 78175  1  0  0  0  0
 78176  1  0  0  0  0
 78177  1  0  0  0  0
 79 80  1  0  0  0  0
 79 81  1  0  0  0  0
 79 82  1  0  0  0  0
 80178  1  0  0  0  0
 80179  1  0  0  0  0
 80180  1  0  0  0  0
 81181  1  0  0  0  0
 81182  1  0  0  0  0
 81183  1  0  0  0  0
 82184  1  0  0  0  0
 82185  1  0  0  0  0
 82186  1  0  0  0  0
M  END
$$$$
