Title Card Required
 OpenBabel03192317463D

 88 96  0  0  0  0  0  0  0  0999 V2000
   -0.6155   -0.4663    0.8795 O   0  0  0  0  0  0  0  0  0  0  0  0
    0.2403   -1.6745    0.0663 P   0  0  0  0  0  0  0  0  0  0  0  0
    1.1717   -0.6220   -0.8893 O   0  0  0  0  0  0  0  0  0  0  0  0
    1.7745    0.4935   -0.3897 C   0  0  0  0  0  0  0  0  0  0  0  0
    1.0190    1.6026   -0.0573 C   0  0  0  0  0  0  0  0  0  0  0  0
   -0.4520    1.5919   -0.2935 C   0  0  0  0  0  0  0  0  0  0  0  0
   -1.2206    0.5732    0.2439 C   0  0  0  0  0  0  0  0  0  0  0  0
    3.2000    0.4740   -0.2840 C   0  0  0  0  0  0  0  0  0  0  0  0
    3.8362    1.5851    0.2135 C   0  0  0  0  0  0  0  0  0  0  0  0
    3.1009    2.7228    0.6484 C   0  0  0  0  0  0  0  0  0  0  0  0
    3.7643    3.8427    1.2187 C   0  0  0  0  0  0  0  0  0  0  0  0
    3.0545    4.9259    1.6751 C   0  0  0  0  0  0  0  0  0  0  0  0
    1.6422    4.9271    1.5872 C   0  0  0  0  0  0  0  0  0  0  0  0
    0.9732    3.8626    1.0310 C   0  0  0  0  0  0  0  0  0  0  0  0
    1.6809    2.7347    0.5301 C   0  0  0  0  0  0  0  0  0  0  0  0
   -2.6477    0.5777    0.1933 C   0  0  0  0  0  0  0  0  0  0  0  0
   -3.2708    1.5939   -0.4947 C   0  0  0  0  0  0  0  0  0  0  0  0
   -2.5261    2.5944   -1.1752 C   0  0  0  0  0  0  0  0  0  0  0  0
   -3.1801    3.5935   -1.9473 C   0  0  0  0  0  0  0  0  0  0  0  0
   -2.4584    4.5444   -2.6242 C   0  0  0  0  0  0  0  0  0  0  0  0
   -1.0437    4.5316   -2.5588 C   0  0  0  0  0  0  0  0  0  0  0  0
   -0.3836    3.5892   -1.8073 C   0  0  0  0  0  0  0  0  0  0  0  0
   -1.1034    2.5984   -1.0815 C   0  0  0  0  0  0  0  0  0  0  0  0
   -0.7222   -2.1907   -1.2030 N   0  0  0  0  0  0  0  0  0  0  0  0
   -1.0457   -3.6049   -1.2691 C   0  0  0  0  0  0  0  0  0  0  0  0
   -0.9675   -1.4581   -2.4353 C   0  0  0  0  0  0  0  0  0  0  0  0
   -3.5294   -0.6968    1.2114 P   0  0  0  0  0  0  0  0  0  0  0  0
   -5.1589    0.1567    1.4189 C   0  0  0  0  0  0  0  0  0  0  0  0
   -6.3560   -0.2549    0.8237 C   0  0  0  0  0  0  0  0  0  0  0  0
   -7.5473    0.4277    1.0829 C   0  0  0  0  0  0  0  0  0  0  0  0
   -7.5573    1.5296    1.9334 C   0  0  0  0  0  0  0  0  0  0  0  0
   -6.3688    1.9445    2.5378 C   0  0  0  0  0  0  0  0  0  0  0  0
   -5.1849    1.2565    2.2914 C   0  0  0  0  0  0  0  0  0  0  0  0
   -3.9947   -1.9754   -0.0385 C   0  0  0  0  0  0  0  0  0  0  0  0
   -4.2057   -1.7032   -1.3953 C   0  0  0  0  0  0  0  0  0  0  0  0
   -4.6635   -2.7014   -2.2548 C   0  0  0  0  0  0  0  0  0  0  0  0
   -4.9204   -3.9842   -1.7675 C   0  0  0  0  0  0  0  0  0  0  0  0
   -4.7059   -4.2678   -0.4194 C   0  0  0  0  0  0  0  0  0  0  0  0
   -4.2387   -3.2694    0.4372 C   0  0  0  0  0  0  0  0  0  0  0  0
    4.0400   -1.0315   -0.9539 P   0  0  0  0  0  0  0  0  0  0  0  0
    5.7881   -0.6845   -0.4720 C   0  0  0  0  0  0  0  0  0  0  0  0
    6.4189   -1.1931    0.6687 C   0  0  0  0  0  0  0  0  0  0  0  0
    7.7581   -0.8967    0.9276 C   0  0  0  0  0  0  0  0  0  0  0  0
    8.4806   -0.0842    0.0564 C   0  0  0  0  0  0  0  0  0  0  0  0
    7.8629    0.4241   -1.0869 C   0  0  0  0  0  0  0  0  0  0  0  0
    6.5313    0.1145   -1.3539 C   0  0  0  0  0  0  0  0  0  0  0  0
    3.4931   -2.2538    0.3165 C   0  0  0  0  0  0  0  0  0  0  0  0
    3.2683   -1.9122    1.6570 C   0  0  0  0  0  0  0  0  0  0  0  0
    2.7738   -2.8573    2.5533 C   0  0  0  0  0  0  0  0  0  0  0  0
    2.4924   -4.1528    2.1191 C   0  0  0  0  0  0  0  0  0  0  0  0
    2.7134   -4.5028    0.7883 C   0  0  0  0  0  0  0  0  0  0  0  0
    3.2119   -3.5565   -0.1083 C   0  0  0  0  0  0  0  0  0  0  0  0
    4.9251    1.6065    0.3012 H   0  0  0  0  0  0  0  0  0  0  0  0
    4.8535    3.8184    1.2935 H   0  0  0  0  0  0  0  0  0  0  0  0
    3.5729    5.7786    2.1157 H   0  0  0  0  0  0  0  0  0  0  0  0
    1.0773    5.7782    1.9703 H   0  0  0  0  0  0  0  0  0  0  0  0
   -0.1155    3.8728    0.9803 H   0  0  0  0  0  0  0  0  0  0  0  0
   -4.3625    1.6459   -0.5270 H   0  0  0  0  0  0  0  0  0  0  0  0
   -4.2710    3.5823   -1.9947 H   0  0  0  0  0  0  0  0  0  0  0  0
   -2.9688    5.3044   -3.2173 H   0  0  0  0  0  0  0  0  0  0  0  0
   -0.4710    5.2762   -3.1137 H   0  0  0  0  0  0  0  0  0  0  0  0
    0.7058    3.5864   -1.7697 H   0  0  0  0  0  0  0  0  0  0  0  0
   -2.1282   -3.7498   -1.4139 H   0  0  0  0  0  0  0  0  0  0  0  0
   -0.5121   -4.0955   -2.1028 H   0  0  0  0  0  0  0  0  0  0  0  0
   -0.7530   -4.1016   -0.3330 H   0  0  0  0  0  0  0  0  0  0  0  0
   -0.8951   -0.3765   -2.2727 H   0  0  0  0  0  0  0  0  0  0  0  0
   -0.2353   -1.7379   -3.2126 H   0  0  0  0  0  0  0  0  0  0  0  0
   -1.9766   -1.6948   -2.8033 H   0  0  0  0  0  0  0  0  0  0  0  0
   -6.3680   -1.1147    0.1516 H   0  0  0  0  0  0  0  0  0  0  0  0
   -8.4727    0.0923    0.6113 H   0  0  0  0  0  0  0  0  0  0  0  0
   -8.4886    2.0627    2.1312 H   0  0  0  0  0  0  0  0  0  0  0  0
   -6.3668    2.8038    3.2105 H   0  0  0  0  0  0  0  0  0  0  0  0
   -4.2603    1.5802    2.7777 H   0  0  0  0  0  0  0  0  0  0  0  0
   -4.0174   -0.6982   -1.7803 H   0  0  0  0  0  0  0  0  0  0  0  0
   -4.8259   -2.4758   -3.3105 H   0  0  0  0  0  0  0  0  0  0  0  0
   -5.2845   -4.7621   -2.4405 H   0  0  0  0  0  0  0  0  0  0  0  0
   -4.8983   -5.2697   -0.0321 H   0  0  0  0  0  0  0  0  0  0  0  0
   -4.0676   -3.4924    1.4934 H   0  0  0  0  0  0  0  0  0  0  0  0
    5.8657   -1.8307    1.3600 H   0  0  0  0  0  0  0  0  0  0  0  0
    8.2375   -1.3058    1.8186 H   0  0  0  0  0  0  0  0  0  0  0  0
    9.5270    0.1468    0.2626 H   0  0  0  0  0  0  0  0  0  0  0  0
    8.4244    1.0529   -1.7797 H   0  0  0  0  0  0  0  0  0  0  0  0
    6.0575    0.4987   -2.2616 H   0  0  0  0  0  0  0  0  0  0  0  0
    3.4657   -0.8919    1.9967 H   0  0  0  0  0  0  0  0  0  0  0  0
    2.5937   -2.5777    3.5925 H   0  0  0  0  0  0  0  0  0  0  0  0
    2.0932   -4.8883    2.8194 H   0  0  0  0  0  0  0  0  0  0  0  0
    2.4908   -5.5142    0.4437 H   0  0  0  0  0  0  0  0  0  0  0  0
    3.3684   -3.8241   -1.1562 H   0  0  0  0  0  0  0  0  0  0  0  0
  1  2  1  0  0  0  0
  1  7  1  0  0  0  0
  2  3  1  0  0  0  0
  2 24  1  0  0  0  0
  3  4  1  0  0  0  0
  4  5  2  0  0  0  0
  4  8  1  0  0  0  0
  5  6  1  0  0  0  0
  5 15  1  0  0  0  0
  6  7  2  0  0  0  0
  6 23  1  0  0  0  0
  7 16  1  0  0  0  0
  8  9  2  0  0  0  0
  8 40  1  0  0  0  0
  9 10  1  0  0  0  0
  9 53  1  0  0  0  0
 10 11  2  0  0  0  0
 10 15  1  0  0  0  0
 11 12  1  0  0  0  0
 11 54  1  0  0  0  0
 12 13  2  0  0  0  0
 12 55  1  0  0  0  0
 13 14  1  0  0  0  0
 13 56  1  0  0  0  0
 14 15  2  0  0  0  0
 14 57  1  0  0  0  0
 16 17  2  0  0  0  0
 16 27  1  0  0  0  0
 17 18  1  0  0  0  0
 17 58  1  0  0  0  0
 18 19  2  0  0  0  0
 18 23  1  0  0  0  0
 19 20  1  0  0  0  0
 19 59  1  0  0  0  0
 20 21  2  0  0  0  0
 20 60  1  0  0  0  0
 21 22  1  0  0  0  0
 21 61  1  0  0  0  0
 22 23  2  0  0  0  0
 22 62  1  0  0  0  0
 24 25  1  0  0  0  0
 24 26  1  0  0  0  0
 25 63  1  0  0  0  0
 25 64  1  0  0  0  0
 25 65  1  0  0  0  0
 26 66  1  0  0  0  0
 26 67  1  0  0  0  0
 26 68  1  0  0  0  0
 27 28  1  0  0  0  0
 27 34  1  0  0  0  0
 28 29  2  0  0  0  0
 28 33  1  0  0  0  0
 29 30  1  0  0  0  0
 29 69  1  0  0  0  0
 30 31  2  0  0  0  0
 30 70  1  0  0  0  0
 31 32  1  0  0  0  0
 31 71  1  0  0  0  0
 32 33  2  0  0  0  0
 32 72  1  0  0  0  0
 33 73  1  0  0  0  0
 34 35  2  0  0  0  0
 34 39  1  0  0  0  0
 35 36  1  0  0  0  0
 35 74  1  0  0  0  0
 36 37  2  0  0  0  0
 36 75  1  0  0  0  0
 37 38  1  0  0  0  0
 37 76  1  0  0  0  0
 38 39  2  0  0  0  0
 38 77  1  0  0  0  0
 39 78  1  0  0  0  0
 40 41  1  0  0  0  0
 40 47  1  0  0  0  0
 41 42  2  0  0  0  0
 41 46  1  0  0  0  0
 42 43  1  0  0  0  0
 42 79  1  0  0  0  0
 43 44  2  0  0  0  0
 43 80  1  0  0  0  0
 44 45  1  0  0  0  0
 44 81  1  0  0  0  0
 45 46  2  0  0  0  0
 45 82  1  0  0  0  0
 46 83  1  0  0  0  0
 47 48  2  0  0  0  0
 47 52  1  0  0  0  0
 48 49  1  0  0  0  0
 48 84  1  0  0  0  0
 49 50  2  0  0  0  0
 49 85  1  0  0  0  0
 50 51  1  0  0  0  0
 50 86  1  0  0  0  0
 51 52  2  0  0  0  0
 51 87  1  0  0  0  0
 52 88  1  0  0  0  0
M  END
$$$$
