Title Card Required
 OpenBabel03192317573D

 88 95  0  0  1  0  0  0  0  0999 V2000
   -0.7321    2.8816    2.4152 C   0  0  0  0  0  0  0  0  0  0  0  0
   -1.4399    2.4293    3.6699 C   0  0  0  0  0  0  0  0  0  0  0  0
   -1.2350    0.9036    3.6786 C   0  0  0  0  0  0  0  0  0  0  0  0
    0.0021    0.6214    2.7700 C   0  0  1  0  0  0  0  0  0  0  0  0
    0.1049    1.8806    1.9233 C   0  0  0  0  0  0  0  0  0  0  0  0
    1.3010    0.4037    3.6080 C   0  0  0  0  0  0  0  0  0  0  0  0
    1.5992   -1.1053    3.5922 C   0  0  0  0  0  0  0  0  0  0  0  0
    0.7392   -1.6531    2.4832 C   0  0  0  0  0  0  0  0  0  0  0  0
   -0.1744   -0.6980    2.0109 C   0  0  0  0  0  0  0  0  0  0  0  0
    0.9085    2.1326    0.8116 C   0  0  0  0  0  0  0  0  0  0  0  0
    0.8185    3.3757    0.1709 C   0  0  0  0  0  0  0  0  0  0  0  0
   -0.0385    4.3651    0.6508 C   0  0  0  0  0  0  0  0  0  0  0  0
   -0.8150    4.1237    1.7884 C   0  0  0  0  0  0  0  0  0  0  0  0
    0.7788   -2.9359    1.9487 C   0  0  0  0  0  0  0  0  0  0  0  0
   -0.1043   -3.2705    0.9253 C   0  0  0  0  0  0  0  0  0  0  0  0
   -1.0391   -2.3441    0.4712 C   0  0  0  0  0  0  0  0  0  0  0  0
   -1.1133   -1.0455    1.0052 C   0  0  0  0  0  0  0  0  0  0  0  0
    1.8522    1.1410    0.2563 C   0  0  0  0  0  0  0  0  0  0  0  0
   -2.5178    0.0914    0.5412 P   0  0  0  0  0  0  0  0  0  0  0  0
    2.3386    1.1381   -0.9184 N   0  0  0  0  0  0  0  0  0  0  0  0
    3.3004    0.0363   -0.9672 C   0  0  2  0  0  0  0  0  0  0  0  0
    2.9529   -0.7863    0.2863 C   0  0  0  0  0  0  0  0  0  0  0  0
    2.2704    0.1669    1.1010 O   0  0  0  0  0  0  0  0  0  0  0  0
   -1.9639    0.9816   -0.9684 C   0  0  0  0  0  0  0  0  0  0  0  0
   -3.6970   -1.1229   -0.1957 C   0  0  0  0  0  0  0  0  0  0  0  0
   -1.0247    0.4886   -1.8794 C   0  0  0  0  0  0  0  0  0  0  0  0
   -0.6620    1.2343   -3.0035 C   0  0  0  0  0  0  0  0  0  0  0  0
   -1.2640    2.4823   -3.2017 C   0  0  0  0  0  0  0  0  0  0  0  0
   -2.2104    2.9938   -2.3138 C   0  0  0  0  0  0  0  0  0  0  0  0
   -2.5502    2.2290   -1.1931 C   0  0  0  0  0  0  0  0  0  0  0  0
   -4.3475   -1.9949    0.6885 C   0  0  0  0  0  0  0  0  0  0  0  0
   -5.2740   -2.9321    0.2304 C   0  0  0  0  0  0  0  0  0  0  0  0
   -5.5670   -2.9649   -1.1384 C   0  0  0  0  0  0  0  0  0  0  0  0
   -4.9531   -2.0931   -2.0396 C   0  0  0  0  0  0  0  0  0  0  0  0
   -4.0109   -1.1766   -1.5554 C   0  0  0  0  0  0  0  0  0  0  0  0
   -5.9277   -3.8962    1.1866 C   0  0  0  0  0  0  0  0  0  0  0  0
   -5.3079   -2.1141   -3.5041 C   0  0  0  0  0  0  0  0  0  0  0  0
    0.3753    0.7363   -3.9722 C   0  0  0  0  0  0  0  0  0  0  0  0
   -2.8494    4.3379   -2.5459 C   0  0  0  0  0  0  0  0  0  0  0  0
    4.7323    0.5971   -0.9611 C   0  0  0  0  0  0  0  0  0  0  0  0
    5.7785   -0.4796   -1.0966 C   0  0  0  0  0  0  0  0  0  0  0  0
    5.9544   -1.1459   -2.3165 C   0  0  0  0  0  0  0  0  0  0  0  0
    6.8896   -2.1701   -2.4444 C   0  0  0  0  0  0  0  0  0  0  0  0
    7.6689   -2.5476   -1.3501 C   0  0  0  0  0  0  0  0  0  0  0  0
    7.5058   -1.8922   -0.1316 C   0  0  0  0  0  0  0  0  0  0  0  0
    6.5668   -0.8673   -0.0084 C   0  0  0  0  0  0  0  0  0  0  0  0
   -0.9706    2.9081    4.5455 H   0  0  0  0  0  0  0  0  0  0  0  0
   -2.5028    2.7115    3.6768 H   0  0  0  0  0  0  0  0  0  0  0  0
   -1.0820    0.4934    4.6865 H   0  0  0  0  0  0  0  0  0  0  0  0
   -2.1208    0.4145    3.2562 H   0  0  0  0  0  0  0  0  0  0  0  0
    2.1329    0.9540    3.1526 H   0  0  0  0  0  0  0  0  0  0  0  0
    1.1677    0.7916    4.6276 H   0  0  0  0  0  0  0  0  0  0  0  0
    2.6659   -1.3130    3.4198 H   0  0  0  0  0  0  0  0  0  0  0  0
    1.3303   -1.5864    4.5469 H   0  0  0  0  0  0  0  0  0  0  0  0
    1.4339    3.5412   -0.7137 H   0  0  0  0  0  0  0  0  0  0  0  0
   -0.0969    5.3267    0.1377 H   0  0  0  0  0  0  0  0  0  0  0  0
   -1.4789    4.8954    2.1846 H   0  0  0  0  0  0  0  0  0  0  0  0
    1.4947   -3.6699    2.3251 H   0  0  0  0  0  0  0  0  0  0  0  0
   -0.0794   -4.2692    0.4859 H   0  0  0  0  0  0  0  0  0  0  0  0
   -1.7463   -2.6419   -0.3057 H   0  0  0  0  0  0  0  0  0  0  0  0
    3.1538   -0.5512   -1.8859 H   0  0  0  0  0  0  0  0  0  0  0  0
    2.2564   -1.6132    0.0711 H   0  0  0  0  0  0  0  0  0  0  0  0
    3.8234   -1.1717    0.8331 H   0  0  0  0  0  0  0  0  0  0  0  0
   -0.5521   -0.4820   -1.7020 H   0  0  0  0  0  0  0  0  0  0  0  0
   -0.9736    3.0778   -4.0728 H   0  0  0  0  0  0  0  0  0  0  0  0
   -3.2660    2.6243   -0.4664 H   0  0  0  0  0  0  0  0  0  0  0  0
   -4.1176   -1.9492    1.7581 H   0  0  0  0  0  0  0  0  0  0  0  0
   -6.2990   -3.6879   -1.5093 H   0  0  0  0  0  0  0  0  0  0  0  0
   -3.5180   -0.4985   -2.2566 H   0  0  0  0  0  0  0  0  0  0  0  0
   -6.8502   -4.3153    0.7631 H   0  0  0  0  0  0  0  0  0  0  0  0
   -5.2533   -4.7356    1.4167 H   0  0  0  0  0  0  0  0  0  0  0  0
   -6.1760   -3.4046    2.1374 H   0  0  0  0  0  0  0  0  0  0  0  0
   -6.0173   -1.3069   -3.7442 H   0  0  0  0  0  0  0  0  0  0  0  0
   -4.4172   -1.9633   -4.1297 H   0  0  0  0  0  0  0  0  0  0  0  0
   -5.7755   -3.0658   -3.7896 H   0  0  0  0  0  0  0  0  0  0  0  0
   -0.0164    0.7149   -5.0003 H   0  0  0  0  0  0  0  0  0  0  0  0
    1.2541    1.3966   -3.9499 H   0  0  0  0  0  0  0  0  0  0  0  0
    0.7064   -0.2777   -3.7095 H   0  0  0  0  0  0  0  0  0  0  0  0
   -3.7772    4.2384   -3.1306 H   0  0  0  0  0  0  0  0  0  0  0  0
   -3.1098    4.8189   -1.5926 H   0  0  0  0  0  0  0  0  0  0  0  0
   -2.1787    5.0084   -3.1010 H   0  0  0  0  0  0  0  0  0  0  0  0
    4.8097    1.3199   -1.7872 H   0  0  0  0  0  0  0  0  0  0  0  0
    4.8803    1.1572   -0.0243 H   0  0  0  0  0  0  0  0  0  0  0  0
    5.3531   -0.8501   -3.1804 H   0  0  0  0  0  0  0  0  0  0  0  0
    7.0145   -2.6741   -3.4043 H   0  0  0  0  0  0  0  0  0  0  0  0
    8.4036   -3.3480   -1.4495 H   0  0  0  0  0  0  0  0  0  0  0  0
    8.1139   -2.1765    0.7287 H   0  0  0  0  0  0  0  0  0  0  0  0
    6.4479   -0.3523    0.9484 H   0  0  0  0  0  0  0  0  0  0  0  0
  1  2  1  0  0  0  0
  1  5  2  0  0  0  0
  1 13  1  0  0  0  0
  2  3  1  0  0  0  0
  2 47  1  0  0  0  0
  2 48  1  0  0  0  0
  3  4  1  0  0  0  0
  3 49  1  0  0  0  0
  3 50  1  0  0  0  0
  4  5  1  6  0  0  0
  4  6  1  0  0  0  0
  4  9  1  0  0  0  0
  5 10  1  0  0  0  0
  6  7  1  0  0  0  0
  6 51  1  0  0  0  0
  6 52  1  0  0  0  0
  7  8  1  0  0  0  0
  7 53  1  0  0  0  0
  7 54  1  0  0  0  0
  8  9  2  0  0  0  0
  8 14  1  0  0  0  0
  9 17  1  0  0  0  0
 10 11  2  0  0  0  0
 10 18  1  0  0  0  0
 11 12  1  0  0  0  0
 11 55  1  0  0  0  0
 12 13  2  0  0  0  0
 12 56  1  0  0  0  0
 13 57  1  0  0  0  0
 14 15  2  0  0  0  0
 14 58  1  0  0  0  0
 15 16  1  0  0  0  0
 15 59  1  0  0  0  0
 16 17  2  0  0  0  0
 16 60  1  0  0  0  0
 17 19  1  0  0  0  0
 18 20  2  0  0  0  0
 18 23  1  0  0  0  0
 19 24  1  0  0  0  0
 19 25  1  0  0  0  0
 20 21  1  0  0  0  0
 21 22  1  0  0  0  0
 21 40  1  0  0  0  0
 21 61  1  6  0  0  0
 22 23  1  0  0  0  0
 22 62  1  0  0  0  0
 22 63  1  0  0  0  0
 24 26  2  0  0  0  0
 24 30  1  0  0  0  0
 25 31  2  0  0  0  0
 25 35  1  0  0  0  0
 26 27  1  0  0  0  0
 26 64  1  0  0  0  0
 27 28  2  0  0  0  0
 27 38  1  0  0  0  0
 28 29  1  0  0  0  0
 28 65  1  0  0  0  0
 29 30  2  0  0  0  0
 29 39  1  0  0  0  0
 30 66  1  0  0  0  0
 31 32  1  0  0  0  0
 31 67  1  0  0  0  0
 32 33  2  0  0  0  0
 32 36  1  0  0  0  0
 33 34  1  0  0  0  0
 33 68  1  0  0  0  0
 34 35  2  0  0  0  0
 34 37  1  0  0  0  0
 35 69  1  0  0  0  0
 36 70  1  0  0  0  0
 36 71  1  0  0  0  0
 36 72  1  0  0  0  0
 37 73  1  0  0  0  0
 37 74  1  0  0  0  0
 37 75  1  0  0  0  0
 38 76  1  0  0  0  0
 38 77  1  0  0  0  0
 38 78  1  0  0  0  0
 39 79  1  0  0  0  0
 39 80  1  0  0  0  0
 39 81  1  0  0  0  0
 40 41  1  0  0  0  0
 40 82  1  0  0  0  0
 40 83  1  0  0  0  0
 41 42  2  0  0  0  0
 41 46  1  0  0  0  0
 42 43  1  0  0  0  0
 42 84  1  0  0  0  0
 43 44  2  0  0  0  0
 43 85  1  0  0  0  0
 44 45  1  0  0  0  0
 44 86  1  0  0  0  0
 45 46  2  0  0  0  0
 45 87  1  0  0  0  0
 46 88  1  0  0  0  0
M  END
$$$$
