Title Card Required
 OpenBabel03192317463D

 38 41  0  0  1  0  0  0  0  0999 V2000
    0.6856   -1.2070   -0.6424 O   0  0  0  0  0  0  0  0  0  0  0  0
    0.7407    0.1375   -0.6435 C   0  0  0  0  0  0  0  0  0  0  0  0
    1.8659    0.6990   -0.8253 N   0  0  0  0  0  0  0  0  0  0  0  0
    2.8381   -0.3683   -1.0439 C   0  0  2  0  0  0  0  0  0  0  0  0
    2.0398   -1.6554   -0.6984 C   0  0  0  0  0  0  0  0  0  0  0  0
    4.1066   -0.2236   -0.2346 C   0  0  0  0  0  0  0  0  0  0  0  0
    4.1751    0.6387    0.8613 C   0  0  0  0  0  0  0  0  0  0  0  0
    5.3403    0.7144    1.6246 C   0  0  0  0  0  0  0  0  0  0  0  0
    6.4455   -0.0711    1.3018 C   0  0  0  0  0  0  0  0  0  0  0  0
    6.3841   -0.9315    0.2053 C   0  0  0  0  0  0  0  0  0  0  0  0
    5.2221   -1.0032   -0.5593 C   0  0  0  0  0  0  0  0  0  0  0  0
   -2.7926    0.7605   -0.0549 C   0  0  0  0  0  0  0  0  0  0  0  0
   -2.9049    2.1565   -0.0784 C   0  0  0  0  0  0  0  0  0  0  0  0
   -1.7580    2.9119   -0.3006 C   0  0  0  0  0  0  0  0  0  0  0  0
   -0.5439    2.2603   -0.4917 C   0  0  0  0  0  0  0  0  0  0  0  0
   -0.5402    0.8622   -0.4459 C   0  0  0  0  0  0  0  0  0  0  0  0
   -1.6302    0.1347   -0.2346 N   0  0  0  0  0  0  0  0  0  0  0  0
   -3.9940   -0.0944    0.1755 C   0  0  0  0  0  0  0  0  0  0  0  0
   -3.8694   -1.4892    0.1922 C   0  0  0  0  0  0  0  0  0  0  0  0
   -5.0112   -2.2518    0.4088 C   0  0  0  0  0  0  0  0  0  0  0  0
   -6.2292   -1.6029    0.6005 C   0  0  0  0  0  0  0  0  0  0  0  0
   -6.2453   -0.2080    0.5653 C   0  0  0  0  0  0  0  0  0  0  0  0
   -5.1600    0.5290    0.3585 N   0  0  0  0  0  0  0  0  0  0  0  0
    3.1153   -0.3610   -2.1128 H   0  0  0  0  0  0  0  0  0  0  0  0
    2.1234   -2.4488   -1.4511 H   0  0  0  0  0  0  0  0  0  0  0  0
    2.3229   -2.0543    0.2881 H   0  0  0  0  0  0  0  0  0  0  0  0
    3.3091    1.2571    1.1012 H   0  0  0  0  0  0  0  0  0  0  0  0
    5.3845    1.3944    2.4770 H   0  0  0  0  0  0  0  0  0  0  0  0
    7.3558   -0.0115    1.9003 H   0  0  0  0  0  0  0  0  0  0  0  0
    7.2475   -1.5444   -0.0589 H   0  0  0  0  0  0  0  0  0  0  0  0
    5.1824   -1.6700   -1.4251 H   0  0  0  0  0  0  0  0  0  0  0  0
   -3.8846    2.6064    0.0760 H   0  0  0  0  0  0  0  0  0  0  0  0
   -1.8105    4.0013   -0.3267 H   0  0  0  0  0  0  0  0  0  0  0  0
    0.3913    2.7887   -0.6749 H   0  0  0  0  0  0  0  0  0  0  0  0
   -2.8860   -1.9312    0.0359 H   0  0  0  0  0  0  0  0  0  0  0  0
   -4.9521   -3.3414    0.4283 H   0  0  0  0  0  0  0  0  0  0  0  0
   -7.1505   -2.1592    0.7747 H   0  0  0  0  0  0  0  0  0  0  0  0
   -7.1834    0.3361    0.7121 H   0  0  0  0  0  0  0  0  0  0  0  0
  1  2  1  0  0  0  0
  1  5  1  0  0  0  0
  2  3  2  0  0  0  0
  2 16  1  0  0  0  0
  3  4  1  0  0  0  0
  4  5  1  0  0  0  0
  4  6  1  0  0  0  0
  4 24  1  6  0  0  0
  5 25  1  0  0  0  0
  5 26  1  0  0  0  0
  6  7  2  0  0  0  0
  6 11  1  0  0  0  0
  7  8  1  0  0  0  0
  7 27  1  0  0  0  0
  8  9  2  0  0  0  0
  8 28  1  0  0  0  0
  9 10  1  0  0  0  0
  9 29  1  0  0  0  0
 10 11  2  0  0  0  0
 10 30  1  0  0  0  0
 11 31  1  0  0  0  0
 12 13  2  0  0  0  0
 12 17  1  0  0  0  0
 12 18  1  0  0  0  0
 13 14  1  0  0  0  0
 13 32  1  0  0  0  0
 14 15  2  0  0  0  0
 14 33  1  0  0  0  0
 15 16  1  0  0  0  0
 15 34  1  0  0  0  0
 16 17  2  0  0  0  0
 18 19  2  0  0  0  0
 18 23  1  0  0  0  0
 19 20  1  0  0  0  0
 19 35  1  0  0  0  0
 20 21  2  0  0  0  0
 20 36  1  0  0  0  0
 21 22  1  0  0  0  0
 21 37  1  0  0  0  0
 22 23  2  0  0  0  0
 22 38  1  0  0  0  0
M  END
$$$$
