Title Card Required
 OpenBabel03192317493D

178183  0  0  0  0  0  0  0  0999 V2000
   -0.0607   -2.5349    1.7317 C   0  0  0  0  0  0  0  0  0  0  0  0
    0.8148   -2.0397    2.7266 C   0  0  0  0  0  0  0  0  0  0  0  0
    0.4734   -2.1486    4.0790 C   0  0  0  0  0  0  0  0  0  0  0  0
   -0.7525   -2.6889    4.4639 C   0  0  0  0  0  0  0  0  0  0  0  0
   -1.6187   -3.1718    3.4991 C   0  0  0  0  0  0  0  0  0  0  0  0
   -1.2814   -3.1170    2.1375 C   0  0  0  0  0  0  0  0  0  0  0  0
    0.2769   -2.3784    0.2789 C   0  0  0  0  0  0  0  0  0  0  0  0
   -0.1779   -1.2241   -0.3995 C   0  0  0  0  0  0  0  0  0  0  0  0
    0.1049   -1.0428   -1.7561 C   0  0  0  0  0  0  0  0  0  0  0  0
    0.8119   -2.0199   -2.4552 C   0  0  0  0  0  0  0  0  0  0  0  0
    1.2570   -3.1590   -1.8048 C   0  0  0  0  0  0  0  0  0  0  0  0
    0.9976   -3.3516   -0.4425 C   0  0  0  0  0  0  0  0  0  0  0  0
    1.4283   -4.5574    0.0090 O   0  0  0  0  0  0  0  0  0  0  0  0
    1.4650   -4.9701    1.3564 C   0  0  0  0  0  0  0  0  0  0  0  0
   -2.2427   -3.6328    1.3348 O   0  0  0  0  0  0  0  0  0  0  0  0
   -2.0215   -4.1400    0.0363 C   0  0  0  0  0  0  0  0  0  0  0  0
   -1.2792   -0.0620    0.5539 P   0  0  0  0  0  0  0  0  0  0  0  0
   -1.1649    1.4680   -0.4629 C   0  0  0  0  0  0  0  0  0  0  0  0
    0.0908    2.0503   -0.6708 C   0  0  0  0  0  0  0  0  0  0  0  0
    0.2533    3.2100   -1.4317 C   0  0  0  0  0  0  0  0  0  0  0  0
   -0.8934    3.8563   -1.9481 C   0  0  0  0  0  0  0  0  0  0  0  0
   -2.1710    3.3339   -1.6693 C   0  0  0  0  0  0  0  0  0  0  0  0
   -2.2859    2.1366   -0.9511 C   0  0  0  0  0  0  0  0  0  0  0  0
   -0.7095    5.0279   -2.7481 N   0  0  0  0  0  0  0  0  0  0  0  0
   -0.9799    6.3023   -2.1255 C   0  0  0  0  0  0  0  0  0  0  0  0
   -1.0349    4.9469   -4.1528 C   0  0  0  0  0  0  0  0  0  0  0  0
   -3.4488    4.0206   -2.1241 C   0  0  0  0  0  0  0  0  0  0  0  0
   -4.2617    3.1268   -3.0650 C   0  0  0  0  0  0  0  0  0  0  0  0
   -4.2842    4.4632   -0.9179 C   0  0  0  0  0  0  0  0  0  0  0  0
    1.6775    3.6495   -1.7363 C   0  0  0  0  0  0  0  0  0  0  0  0
    2.0507    3.2984   -3.1805 C   0  0  0  0  0  0  0  0  0  0  0  0
    2.0318    5.1080   -1.4345 C   0  0  0  0  0  0  0  0  0  0  0  0
   -2.9201   -0.7368    0.0282 C   0  0  0  0  0  0  0  0  0  0  0  0
   -3.8360   -1.0675    1.0245 C   0  0  0  0  0  0  0  0  0  0  0  0
   -5.0749   -1.6422    0.7213 C   0  0  0  0  0  0  0  0  0  0  0  0
   -5.4046   -1.8862   -0.6274 C   0  0  0  0  0  0  0  0  0  0  0  0
   -4.4750   -1.5836   -1.6478 C   0  0  0  0  0  0  0  0  0  0  0  0
   -3.2577   -0.9963   -1.3026 C   0  0  0  0  0  0  0  0  0  0  0  0
   -6.6851   -2.4490   -0.9151 N   0  0  0  0  0  0  0  0  0  0  0  0
   -7.6401   -1.6543   -1.6493 C   0  0  0  0  0  0  0  0  0  0  0  0
   -6.7419   -3.8745   -1.1284 C   0  0  0  0  0  0  0  0  0  0  0  0
   -4.7376   -1.9121   -3.1094 C   0  0  0  0  0  0  0  0  0  0  0  0
   -4.8509   -0.6421   -3.9569 C   0  0  0  0  0  0  0  0  0  0  0  0
   -3.6620   -2.8543   -3.6609 C   0  0  0  0  0  0  0  0  0  0  0  0
   -6.0419   -1.9759    1.8426 C   0  0  0  0  0  0  0  0  0  0  0  0
   -5.3611   -2.7354    2.9835 C   0  0  0  0  0  0  0  0  0  0  0  0
   -6.7270   -0.7037    2.3510 C   0  0  0  0  0  0  0  0  0  0  0  0
    2.4559   -1.1803    2.5391 P   0  0  0  0  0  0  0  0  0  0  0  0
    3.1838   -1.5144    0.8746 C   0  0  0  0  0  0  0  0  0  0  0  0
    3.1570   -0.6385   -0.2143 C   0  0  0  0  0  0  0  0  0  0  0  0
    3.9157   -0.8586   -1.3658 C   0  0  0  0  0  0  0  0  0  0  0  0
    4.6672   -2.0510   -1.4703 C   0  0  0  0  0  0  0  0  0  0  0  0
    4.6778   -2.9688   -0.4003 C   0  0  0  0  0  0  0  0  0  0  0  0
    3.9790   -2.6577    0.7704 C   0  0  0  0  0  0  0  0  0  0  0  0
    5.4034   -2.2830   -2.6752 N   0  0  0  0  0  0  0  0  0  0  0  0
    4.7982   -3.1825   -3.6285 C   0  0  0  0  0  0  0  0  0  0  0  0
    6.8463   -2.3197   -2.6194 C   0  0  0  0  0  0  0  0  0  0  0  0
    5.4863   -4.2561   -0.4488 C   0  0  0  0  0  0  0  0  0  0  0  0
    6.7436   -4.1465    0.4210 C   0  0  0  0  0  0  0  0  0  0  0  0
    4.6502   -5.4728   -0.0438 C   0  0  0  0  0  0  0  0  0  0  0  0
    3.9868    0.2767   -2.3815 C   0  0  0  0  0  0  0  0  0  0  0  0
    5.3696    0.9383   -2.3493 C   0  0  0  0  0  0  0  0  0  0  0  0
    3.5973   -0.0565   -3.8223 C   0  0  0  0  0  0  0  0  0  0  0  0
    1.9479    0.5944    2.4676 C   0  0  0  0  0  0  0  0  0  0  0  0
    0.7415    1.0519    2.9956 C   0  0  0  0  0  0  0  0  0  0  0  0
    0.4479    2.4191    3.0831 C   0  0  0  0  0  0  0  0  0  0  0  0
    1.3717    3.3576    2.5897 C   0  0  0  0  0  0  0  0  0  0  0  0
    2.6110    2.9144    2.0632 C   0  0  0  0  0  0  0  0  0  0  0  0
    2.8838    1.5470    2.0385 C   0  0  0  0  0  0  0  0  0  0  0  0
    1.1012    4.7642    2.5923 N   0  0  0  0  0  0  0  0  0  0  0  0
    1.1840    5.4727    3.8503 C   0  0  0  0  0  0  0  0  0  0  0  0
    0.0464    5.2364    1.7220 C   0  0  0  0  0  0  0  0  0  0  0  0
    3.6460    3.9116    1.5653 C   0  0  0  0  0  0  0  0  0  0  0  0
    4.4051    4.5491    2.7353 C   0  0  0  0  0  0  0  0  0  0  0  0
    4.6460    3.3162    0.5732 C   0  0  0  0  0  0  0  0  0  0  0  0
   -0.8394    2.8422    3.7768 C   0  0  0  0  0  0  0  0  0  0  0  0
   -2.0930    2.2828    3.1014 C   0  0  0  0  0  0  0  0  0  0  0  0
   -0.7948    2.4512    5.2587 C   0  0  0  0  0  0  0  0  0  0  0  0
    1.1757   -1.7920    4.8360 H   0  0  0  0  0  0  0  0  0  0  0  0
   -1.0189   -2.7527    5.5201 H   0  0  0  0  0  0  0  0  0  0  0  0
   -2.5736   -3.6281    3.7601 H   0  0  0  0  0  0  0  0  0  0  0  0
   -0.2397   -0.1443   -2.2718 H   0  0  0  0  0  0  0  0  0  0  0  0
    1.0026   -1.9000   -3.5232 H   0  0  0  0  0  0  0  0  0  0  0  0
    1.8039   -3.9451   -2.3271 H   0  0  0  0  0  0  0  0  0  0  0  0
    0.4591   -5.1061    1.7791 H   0  0  0  0  0  0  0  0  0  0  0  0
    1.9839   -5.9365    1.3486 H   0  0  0  0  0  0  0  0  0  0  0  0
    2.0200   -4.2659    1.9912 H   0  0  0  0  0  0  0  0  0  0  0  0
   -1.9360   -3.3410   -0.7145 H   0  0  0  0  0  0  0  0  0  0  0  0
   -1.1249   -4.7779   -0.0037 H   0  0  0  0  0  0  0  0  0  0  0  0
   -2.9050   -4.7493   -0.1948 H   0  0  0  0  0  0  0  0  0  0  0  0
    0.9799    1.5713   -0.2497 H   0  0  0  0  0  0  0  0  0  0  0  0
   -3.2808    1.7189   -0.7758 H   0  0  0  0  0  0  0  0  0  0  0  0
   -0.4405    7.1010   -2.6624 H   0  0  0  0  0  0  0  0  0  0  0  0
   -2.0547    6.5806   -2.1090 H   0  0  0  0  0  0  0  0  0  0  0  0
   -0.6170    6.2918   -1.0883 H   0  0  0  0  0  0  0  0  0  0  0  0
   -0.7845    3.9462   -4.5317 H   0  0  0  0  0  0  0  0  0  0  0  0
   -2.1012    5.1432   -4.3903 H   0  0  0  0  0  0  0  0  0  0  0  0
   -0.4344    5.6819   -4.7158 H   0  0  0  0  0  0  0  0  0  0  0  0
   -3.1718    4.9242   -2.6800 H   0  0  0  0  0  0  0  0  0  0  0  0
   -4.5740    2.2011   -2.5573 H   0  0  0  0  0  0  0  0  0  0  0  0
   -5.1688    3.6463   -3.4085 H   0  0  0  0  0  0  0  0  0  0  0  0
   -3.6707    2.8410   -3.9481 H   0  0  0  0  0  0  0  0  0  0  0  0
   -3.6989    5.1162   -0.2536 H   0  0  0  0  0  0  0  0  0  0  0  0
   -5.1794    5.0130   -1.2451 H   0  0  0  0  0  0  0  0  0  0  0  0
   -4.6168    3.5958   -0.3272 H   0  0  0  0  0  0  0  0  0  0  0  0
    2.3039    3.0284   -1.0749 H   0  0  0  0  0  0  0  0  0  0  0  0
    1.5062    3.9490   -3.8808 H   0  0  0  0  0  0  0  0  0  0  0  0
    3.1305    3.4431   -3.3465 H   0  0  0  0  0  0  0  0  0  0  0  0
    1.8034    2.2518   -3.4133 H   0  0  0  0  0  0  0  0  0  0  0  0
    3.1274    5.2228   -1.4292 H   0  0  0  0  0  0  0  0  0  0  0  0
    1.6203    5.7814   -2.1971 H   0  0  0  0  0  0  0  0  0  0  0  0
    1.6596    5.4240   -0.4498 H   0  0  0  0  0  0  0  0  0  0  0  0
   -3.5626   -0.8933    2.0691 H   0  0  0  0  0  0  0  0  0  0  0  0
   -2.5399   -0.7594   -2.0929 H   0  0  0  0  0  0  0  0  0  0  0  0
   -7.5670   -1.7436   -2.7532 H   0  0  0  0  0  0  0  0  0  0  0  0
   -8.6646   -1.9480   -1.3653 H   0  0  0  0  0  0  0  0  0  0  0  0
   -7.5109   -0.5944   -1.3887 H   0  0  0  0  0  0  0  0  0  0  0  0
   -6.3926   -4.1984   -2.1323 H   0  0  0  0  0  0  0  0  0  0  0  0
   -6.1226   -4.3854   -0.3762 H   0  0  0  0  0  0  0  0  0  0  0  0
   -7.7792   -4.2261   -1.0076 H   0  0  0  0  0  0  0  0  0  0  0  0
   -5.6955   -2.4437   -3.1702 H   0  0  0  0  0  0  0  0  0  0  0  0
   -3.9127   -0.0659   -3.9282 H   0  0  0  0  0  0  0  0  0  0  0  0
   -5.0638   -0.8900   -5.0077 H   0  0  0  0  0  0  0  0  0  0  0  0
   -5.6554    0.0109   -3.5873 H   0  0  0  0  0  0  0  0  0  0  0  0
   -3.6139   -3.7819   -3.0712 H   0  0  0  0  0  0  0  0  0  0  0  0
   -3.8795   -3.1207   -4.7061 H   0  0  0  0  0  0  0  0  0  0  0  0
   -2.6654   -2.3870   -3.6317 H   0  0  0  0  0  0  0  0  0  0  0  0
   -6.8185   -2.6216    1.4120 H   0  0  0  0  0  0  0  0  0  0  0  0
   -4.6507   -2.0943    3.5288 H   0  0  0  0  0  0  0  0  0  0  0  0
   -6.1096   -3.0883    3.7085 H   0  0  0  0  0  0  0  0  0  0  0  0
   -4.8027   -3.6018    2.5996 H   0  0  0  0  0  0  0  0  0  0  0  0
   -7.2636   -0.1950    1.5370 H   0  0  0  0  0  0  0  0  0  0  0  0
   -7.4485   -0.9380    3.1482 H   0  0  0  0  0  0  0  0  0  0  0  0
   -5.9843    0.0008    2.7580 H   0  0  0  0  0  0  0  0  0  0  0  0
    2.5615    0.2731   -0.1597 H   0  0  0  0  0  0  0  0  0  0  0  0
    4.0698   -3.3246    1.6333 H   0  0  0  0  0  0  0  0  0  0  0  0
    5.2641   -3.0412   -4.6180 H   0  0  0  0  0  0  0  0  0  0  0  0
    4.8932   -4.2570   -3.3632 H   0  0  0  0  0  0  0  0  0  0  0  0
    3.7274   -2.9530   -3.7250 H   0  0  0  0  0  0  0  0  0  0  0  0
    7.2025   -1.6214   -1.8491 H   0  0  0  0  0  0  0  0  0  0  0  0
    7.2753   -3.3186   -2.3994 H   0  0  0  0  0  0  0  0  0  0  0  0
    7.2621   -1.9917   -3.5880 H   0  0  0  0  0  0  0  0  0  0  0  0
    5.8056   -4.4110   -1.4867 H   0  0  0  0  0  0  0  0  0  0  0  0
    6.4691   -3.9880    1.4755 H   0  0  0  0  0  0  0  0  0  0  0  0
    7.3426   -5.0679    0.3611 H   0  0  0  0  0  0  0  0  0  0  0  0
    7.3743   -3.3016    0.1105 H   0  0  0  0  0  0  0  0  0  0  0  0
    3.7123   -5.5206   -0.6159 H   0  0  0  0  0  0  0  0  0  0  0  0
    5.2190   -6.4001   -0.2084 H   0  0  0  0  0  0  0  0  0  0  0  0
    4.3888   -5.4326    1.0252 H   0  0  0  0  0  0  0  0  0  0  0  0
    3.2584    1.0249   -2.0219 H   0  0  0  0  0  0  0  0  0  0  0  0
    6.1219    0.2642   -2.7833 H   0  0  0  0  0  0  0  0  0  0  0  0
    5.3644    1.8686   -2.9386 H   0  0  0  0  0  0  0  0  0  0  0  0
    5.6733    1.1833   -1.3212 H   0  0  0  0  0  0  0  0  0  0  0  0
    2.6162   -0.5473   -3.8716 H   0  0  0  0  0  0  0  0  0  0  0  0
    3.5380    0.8726   -4.4098 H   0  0  0  0  0  0  0  0  0  0  0  0
    4.3456   -0.7062   -4.2928 H   0  0  0  0  0  0  0  0  0  0  0  0
    0.0004    0.3364    3.3552 H   0  0  0  0  0  0  0  0  0  0  0  0
    3.8497    1.2065    1.6606 H   0  0  0  0  0  0  0  0  0  0  0  0
    1.5167    6.5118    3.6835 H   0  0  0  0  0  0  0  0  0  0  0  0
    0.2165    5.5213    4.3928 H   0  0  0  0  0  0  0  0  0  0  0  0
    1.9110    4.9838    4.5121 H   0  0  0  0  0  0  0  0  0  0  0  0
    0.2623    6.2688    1.3939 H   0  0  0  0  0  0  0  0  0  0  0  0
   -0.0185    4.5948    0.8318 H   0  0  0  0  0  0  0  0  0  0  0  0
   -0.9551    5.2506    2.2016 H   0  0  0  0  0  0  0  0  0  0  0  0
    3.0875    4.7132    1.0620 H   0  0  0  0  0  0  0  0  0  0  0  0
    4.9271    3.7748    3.3189 H   0  0  0  0  0  0  0  0  0  0  0  0
    5.1558    5.2637    2.3647 H   0  0  0  0  0  0  0  0  0  0  0  0
    3.7271    5.0888    3.4071 H   0  0  0  0  0  0  0  0  0  0  0  0
    4.1514    2.7547   -0.2341 H   0  0  0  0  0  0  0  0  0  0  0  0
    5.2439    4.1178    0.1147 H   0  0  0  0  0  0  0  0  0  0  0  0
    5.3503    2.6306    1.0703 H   0  0  0  0  0  0  0  0  0  0  0  0
   -0.9017    3.9353    3.7321 H   0  0  0  0  0  0  0  0  0  0  0  0
   -2.1121    1.1833    3.1502 H   0  0  0  0  0  0  0  0  0  0  0  0
   -2.9964    2.6632    3.6020 H   0  0  0  0  0  0  0  0  0  0  0  0
   -2.1360    2.5687    2.0391 H   0  0  0  0  0  0  0  0  0  0  0  0
    0.0850    2.8844    5.7567 H   0  0  0  0  0  0  0  0  0  0  0  0
   -1.6977    2.8036    5.7801 H   0  0  0  0  0  0  0  0  0  0  0  0
   -0.7428    1.3574    5.3739 H   0  0  0  0  0  0  0  0  0  0  0  0
  1  2  2  0  0  0  0
  1  6  1  0  0  0  0
  1  7  1  0  0  0  0
  2  3  1  0  0  0  0
  2 48  1  0  0  0  0
  3  4  2  0  0  0  0
  3 79  1  0  0  0  0
  4  5  1  0  0  0  0
  4 80  1  0  0  0  0
  5  6  2  0  0  0  0
  5 81  1  0  0  0  0
  6 15  1  0  0  0  0
  7  8  2  0  0  0  0
  7 12  1  0  0  0  0
  8  9  1  0  0  0  0
  8 17  1  0  0  0  0
  9 10  2  0  0  0  0
  9 82  1  0  0  0  0
 10 11  1  0  0  0  0
 10 83  1  0  0  0  0
 11 12  2  0  0  0  0
 11 84  1  0  0  0  0
 12 13  1  0  0  0  0
 13 14  1  0  0  0  0
 14 85  1  0  0  0  0
 14 86  1  0  0  0  0
 14 87  1  0  0  0  0
 15 16  1  0  0  0  0
 16 88  1  0  0  0  0
 16 89  1  0  0  0  0
 16 90  1  0  0  0  0
 17 18  1  0  0  0  0
 17 33  1  0  0  0  0
 18 19  2  0  0  0  0
 18 23  1  0  0  0  0
 19 20  1  0  0  0  0
 19 91  1  0  0  0  0
 20 21  2  0  0  0  0
 20 30  1  0  0  0  0
 21 22  1  0  0  0  0
 21 24  1  0  0  0  0
 22 23  2  0  0  0  0
 22 27  1  0  0  0  0
 23 92  1  0  0  0  0
 24 25  1  0  0  0  0
 24 26  1  0  0  0  0
 25 93  1  0  0  0  0
 25 94  1  0  0  0  0
 25 95  1  0  0  0  0
 26 96  1  0  0  0  0
 26 97  1  0  0  0  0
 26 98  1  0  0  0  0
 27 28  1  0  0  0  0
 27 29  1  0  0  0  0
 27 99  1  0  0  0  0
 28100  1  0  0  0  0
 28101  1  0  0  0  0
 28102  1  0  0  0  0
 29103  1  0  0  0  0
 29104  1  0  0  0  0
 29105  1  0  0  0  0
 30 31  1  0  0  0  0
 30 32  1  0  0  0  0
 30106  1  0  0  0  0
 31107  1  0  0  0  0
 31108  1  0  0  0  0
 31109  1  0  0  0  0
 32110  1  0  0  0  0
 32111  1  0  0  0  0
 32112  1  0  0  0  0
 33 34  2  0  0  0  0
 33 38  1  0  0  0  0
 34 35  1  0  0  0  0
 34113  1  0  0  0  0
 35 36  2  0  0  0  0
 35 45  1  0  0  0  0
 36 37  1  0  0  0  0
 36 39  1  0  0  0  0
 37 38  2  0  0  0  0
 37 42  1  0  0  0  0
 38114  1  0  0  0  0
 39 40  1  0  0  0  0
 39 41  1  0  0  0  0
 40115  1  0  0  0  0
 40116  1  0  0  0  0
 40117  1  0  0  0  0
 41118  1  0  0  0  0
 41119  1  0  0  0  0
 41120  1  0  0  0  0
 42 43  1  0  0  0  0
 42 44  1  0  0  0  0
 42121  1  0  0  0  0
 43122  1  0  0  0  0
 43123  1  0  0  0  0
 43124  1  0  0  0  0
 44125  1  0  0  0  0
 44126  1  0  0  0  0
 44127  1  0  0  0  0
 45 46  1  0  0  0  0
 45 47  1  0  0  0  0
 45128  1  0  0  0  0
 46129  1  0  0  0  0
 46130  1  0  0  0  0
 46131  1  0  0  0  0
 47132  1  0  0  0  0
 47133  1  0  0  0  0
 47134  1  0  0  0  0
 48 49  1  0  0  0  0
 48 64  1  0  0  0  0
 49 50  2  0  0  0  0
 49 54  1  0  0  0  0
 50 51  1  0  0  0  0
 50135  1  0  0  0  0
 51 52  2  0  0  0  0
 51 61  1  0  0  0  0
 52 53  1  0  0  0  0
 52 55  1  0  0  0  0
 53 54  2  0  0  0  0
 53 58  1  0  0  0  0
 54136  1  0  0  0  0
 55 56  1  0  0  0  0
 55 57  1  0  0  0  0
 56137  1  0  0  0  0
 56138  1  0  0  0  0
 56139  1  0  0  0  0
 57140  1  0  0  0  0
 57141  1  0  0  0  0
 57142  1  0  0  0  0
 58 59  1  0  0  0  0
 58 60  1  0  0  0  0
 58143  1  0  0  0  0
 59144  1  0  0  0  0
 59145  1  0  0  0  0
 59146  1  0  0  0  0
 60147  1  0  0  0  0
 60148  1  0  0  0  0
 60149  1  0  0  0  0
 61 62  1  0  0  0  0
 61 63  1  0  0  0  0
 61150  1  0  0  0  0
 62151  1  0  0  0  0
 62152  1  0  0  0  0
 62153  1  0  0  0  0
 63154  1  0  0  0  0
 63155  1  0  0  0  0
 63156  1  0  0  0  0
 64 65  2  0  0  0  0
 64 69  1  0  0  0  0
 65 66  1  0  0  0  0
 65157  1  0  0  0  0
 66 67  2  0  0  0  0
 66 76  1  0  0  0  0
 67 68  1  0  0  0  0
 67 70  1  0  0  0  0
 68 69  2  0  0  0  0
 68 73  1  0  0  0  0
 69158  1  0  0  0  0
 70 71  1  0  0  0  0
 70 72  1  0  0  0  0
 71159  1  0  0  0  0
 71160  1  0  0  0  0
 71161  1  0  0  0  0
 72162  1  0  0  0  0
 72163  1  0  0  0  0
 72164  1  0  0  0  0
 73 74  1  0  0  0  0
 73 75  1  0  0  0  0
 73165  1  0  0  0  0
 74166  1  0  0  0  0
 74167  1  0  0  0  0
 74168  1  0  0  0  0
 75169  1  0  0  0  0
 75170  1  0  0  0  0
 75171  1  0  0  0  0
 76 77  1  0  0  0  0
 76 78  1  0  0  0  0
 76172  1  0  0  0  0
 77173  1  0  0  0  0
 77174  1  0  0  0  0
 77175  1  0  0  0  0
 78176  1  0  0  0  0
 78177  1  0  0  0  0
 78178  1  0  0  0  0
M  END
$$$$
