Title Card Required
 OpenBabel03192317493D

 76 83  0  0  0  0  0  0  0  0999 V2000
   -1.8832    2.3066    2.1156 C   0  0  0  0  0  0  0  0  0  0  0  0
   -0.7139    2.1408    1.3546 C   0  0  0  0  0  0  0  0  0  0  0  0
   -0.6994    1.2264    0.2870 C   0  0  0  0  0  0  0  0  0  0  0  0
   -1.8462    0.4840   -0.0214 C   0  0  0  0  0  0  0  0  0  0  0  0
   -3.0197    0.6292    0.7426 C   0  0  0  0  0  0  0  0  0  0  0  0
   -3.0097    1.5510    1.7904 C   0  0  0  0  0  0  0  0  0  0  0  0
    0.5298    1.0100   -0.5329 C   0  0  0  0  0  0  0  0  0  0  0  0
    0.6440    1.5414   -1.8298 C   0  0  0  0  0  0  0  0  0  0  0  0
    1.8053    1.3006   -2.5826 C   0  0  0  0  0  0  0  0  0  0  0  0
    2.8222    0.5276   -2.0223 C   0  0  0  0  0  0  0  0  0  0  0  0
    2.7332   -0.0138   -0.7393 C   0  0  0  0  0  0  0  0  0  0  0  0
    1.5728    0.2515    0.0114 C   0  0  0  0  0  0  0  0  0  0  0  0
   -1.7761   -0.3575   -1.0828 O   0  0  0  0  0  0  0  0  0  0  0  0
    1.4209   -0.1972    1.2836 O   0  0  0  0  0  0  0  0  0  0  0  0
   -1.9472    3.2806    3.2750 C   0  0  0  0  0  0  0  0  0  0  0  0
   -0.5668    3.6701    3.7920 C   0  0  0  0  0  0  0  0  0  0  0  0
    0.3169    4.0902    2.6224 C   0  0  0  0  0  0  0  0  0  0  0  0
    0.5476    2.9135    1.6789 C   0  0  0  0  0  0  0  0  0  0  0  0
   -0.5066    2.3424   -2.4005 C   0  0  0  0  0  0  0  0  0  0  0  0
   -0.1394    3.1303   -3.6546 C   0  0  0  0  0  0  0  0  0  0  0  0
    0.6507    2.2563   -4.6222 C   0  0  0  0  0  0  0  0  0  0  0  0
    1.9756    1.8556   -3.9828 C   0  0  0  0  0  0  0  0  0  0  0  0
   -4.2347   -0.1777    0.4574 C   0  0  0  0  0  0  0  0  0  0  0  0
    3.8288   -0.8557   -0.1919 C   0  0  0  0  0  0  0  0  0  0  0  0
   -4.1640   -1.5458    0.2677 C   0  0  0  0  0  0  0  0  0  0  0  0
   -5.3246   -2.3245    0.0110 C   0  0  0  0  0  0  0  0  0  0  0  0
   -6.5933   -1.6805   -0.0449 C   0  0  0  0  0  0  0  0  0  0  0  0
   -6.6509   -0.2742    0.1602 C   0  0  0  0  0  0  0  0  0  0  0  0
   -5.5133    0.4527    0.4005 C   0  0  0  0  0  0  0  0  0  0  0  0
    3.5389   -2.1251    0.3966 C   0  0  0  0  0  0  0  0  0  0  0  0
    4.5424   -2.9242    0.8846 C   0  0  0  0  0  0  0  0  0  0  0  0
    5.9023   -2.5176    0.8104 C   0  0  0  0  0  0  0  0  0  0  0  0
    6.2058   -1.2589    0.2156 C   0  0  0  0  0  0  0  0  0  0  0  0
    5.1456   -0.4495   -0.2708 C   0  0  0  0  0  0  0  0  0  0  0  0
    7.5651   -0.8478    0.1332 C   0  0  0  0  0  0  0  0  0  0  0  0
    8.5705   -1.6495    0.6150 C   0  0  0  0  0  0  0  0  0  0  0  0
    8.2672   -2.9023    1.2056 C   0  0  0  0  0  0  0  0  0  0  0  0
    6.9639   -3.3249    1.3010 C   0  0  0  0  0  0  0  0  0  0  0  0
   -7.7531   -2.4599   -0.3020 C   0  0  0  0  0  0  0  0  0  0  0  0
   -7.6573   -3.8174   -0.4903 C   0  0  0  0  0  0  0  0  0  0  0  0
   -6.3952   -4.4599   -0.4282 C   0  0  0  0  0  0  0  0  0  0  0  0
   -5.2571   -3.7314   -0.1829 C   0  0  0  0  0  0  0  0  0  0  0  0
   -3.9133    1.6575    2.3975 H   0  0  0  0  0  0  0  0  0  0  0  0
    3.7134    0.3069   -2.6165 H   0  0  0  0  0  0  0  0  0  0  0  0
   -2.6576   -0.7044   -1.2731 H   0  0  0  0  0  0  0  0  0  0  0  0
    2.2499   -0.5854    1.5910 H   0  0  0  0  0  0  0  0  0  0  0  0
   -2.4759    4.1938    2.9485 H   0  0  0  0  0  0  0  0  0  0  0  0
   -2.5582    2.8455    4.0805 H   0  0  0  0  0  0  0  0  0  0  0  0
   -0.1047    2.8091    4.3042 H   0  0  0  0  0  0  0  0  0  0  0  0
   -0.6548    4.4778    4.5333 H   0  0  0  0  0  0  0  0  0  0  0  0
    1.2837    4.4777    2.9754 H   0  0  0  0  0  0  0  0  0  0  0  0
   -0.1775    4.9139    2.0793 H   0  0  0  0  0  0  0  0  0  0  0  0
    1.2627    2.2055    2.1328 H   0  0  0  0  0  0  0  0  0  0  0  0
    1.0173    3.2509    0.7421 H   0  0  0  0  0  0  0  0  0  0  0  0
   -1.3209    1.6336   -2.6300 H   0  0  0  0  0  0  0  0  0  0  0  0
   -0.9052    3.0117   -1.6227 H   0  0  0  0  0  0  0  0  0  0  0  0
   -1.0525    3.5206   -4.1273 H   0  0  0  0  0  0  0  0  0  0  0  0
    0.4751    4.0050   -3.3799 H   0  0  0  0  0  0  0  0  0  0  0  0
    0.0633    1.3529   -4.8592 H   0  0  0  0  0  0  0  0  0  0  0  0
    0.8327    2.7810   -5.5716 H   0  0  0  0  0  0  0  0  0  0  0  0
    2.6326    2.7424   -3.9404 H   0  0  0  0  0  0  0  0  0  0  0  0
    2.5020    1.1153   -4.6043 H   0  0  0  0  0  0  0  0  0  0  0  0
   -3.1994   -2.0559    0.3411 H   0  0  0  0  0  0  0  0  0  0  0  0
   -7.6220    0.2235    0.1137 H   0  0  0  0  0  0  0  0  0  0  0  0
   -5.5699    1.5338    0.5392 H   0  0  0  0  0  0  0  0  0  0  0  0
    2.5017   -2.4662    0.4333 H   0  0  0  0  0  0  0  0  0  0  0  0
    4.3074   -3.8960    1.3240 H   0  0  0  0  0  0  0  0  0  0  0  0
    5.3825    0.5227   -0.7100 H   0  0  0  0  0  0  0  0  0  0  0  0
    7.7938    0.1176   -0.3228 H   0  0  0  0  0  0  0  0  0  0  0  0
    9.6096   -1.3245    0.5446 H   0  0  0  0  0  0  0  0  0  0  0  0
    9.0751   -3.5303    1.5838 H   0  0  0  0  0  0  0  0  0  0  0  0
    6.7247   -4.2889    1.7549 H   0  0  0  0  0  0  0  0  0  0  0  0
   -8.7227   -1.9597   -0.3474 H   0  0  0  0  0  0  0  0  0  0  0  0
   -8.5537   -4.4068   -0.6883 H   0  0  0  0  0  0  0  0  0  0  0  0
   -6.3320   -5.5389   -0.5764 H   0  0  0  0  0  0  0  0  0  0  0  0
   -4.2829   -4.2223   -0.1325 H   0  0  0  0  0  0  0  0  0  0  0  0
  1  2  2  0  0  0  0
  1  6  1  0  0  0  0
  1 15  1  0  0  0  0
  2  3  1  0  0  0  0
  2 18  1  0  0  0  0
  3  4  2  0  0  0  0
  3  7  1  0  0  0  0
  4  5  1  0  0  0  0
  4 13  1  0  0  0  0
  5  6  2  0  0  0  0
  5 23  1  0  0  0  0
  6 43  1  0  0  0  0
  7  8  2  0  0  0  0
  7 12  1  0  0  0  0
  8  9  1  0  0  0  0
  8 19  1  0  0  0  0
  9 10  2  0  0  0  0
  9 22  1  0  0  0  0
 10 11  1  0  0  0  0
 10 44  1  0  0  0  0
 11 12  2  0  0  0  0
 11 24  1  0  0  0  0
 12 14  1  0  0  0  0
 13 45  1  0  0  0  0
 14 46  1  0  0  0  0
 15 16  1  0  0  0  0
 15 47  1  0  0  0  0
 15 48  1  0  0  0  0
 16 17  1  0  0  0  0
 16 49  1  0  0  0  0
 16 50  1  0  0  0  0
 17 18  1  0  0  0  0
 17 51  1  0  0  0  0
 17 52  1  0  0  0  0
 18 53  1  0  0  0  0
 18 54  1  0  0  0  0
 19 20  1  0  0  0  0
 19 55  1  0  0  0  0
 19 56  1  0  0  0  0
 20 21  1  0  0  0  0
 20 57  1  0  0  0  0
 20 58  1  0  0  0  0
 21 22  1  0  0  0  0
 21 59  1  0  0  0  0
 21 60  1  0  0  0  0
 22 61  1  0  0  0  0
 22 62  1  0  0  0  0
 23 25  2  0  0  0  0
 23 29  1  0  0  0  0
 24 30  2  0  0  0  0
 24 34  1  0  0  0  0
 25 26  1  0  0  0  0
 25 63  1  0  0  0  0
 26 27  2  0  0  0  0
 26 42  1  0  0  0  0
 27 28  1  0  0  0  0
 27 39  1  0  0  0  0
 28 29  2  0  0  0  0
 28 64  1  0  0  0  0
 29 65  1  0  0  0  0
 30 31  1  0  0  0  0
 30 66  1  0  0  0  0
 31 32  2  0  0  0  0
 31 67  1  0  0  0  0
 32 33  1  0  0  0  0
 32 38  1  0  0  0  0
 33 34  2  0  0  0  0
 33 35  1  0  0  0  0
 34 68  1  0  0  0  0
 35 36  2  0  0  0  0
 35 69  1  0  0  0  0
 36 37  1  0  0  0  0
 36 70  1  0  0  0  0
 37 38  2  0  0  0  0
 37 71  1  0  0  0  0
 38 72  1  0  0  0  0
 39 40  2  0  0  0  0
 39 73  1  0  0  0  0
 40 41  1  0  0  0  0
 40 74  1  0  0  0  0
 41 42  2  0  0  0  0
 41 75  1  0  0  0  0
 42 76  1  0  0  0  0
M  END
$$$$
