Title Card Required
 OpenBabel03192317543D

 70 78  0  0  0  0  0  0  0  0999 V2000
    0.0671   -1.4785   -0.1408 P   0  0  0  0  0  0  0  0  0  0  0  0
   -0.4980   -2.6041   -0.8811 O   0  0  0  0  0  0  0  0  0  0  0  0
    1.1690   -1.8031    0.9658 O   0  0  0  0  0  0  0  0  0  0  0  0
   -0.8905   -0.5502    0.7720 O   0  0  0  0  0  0  0  0  0  0  0  0
    0.7414   -0.3803   -1.1243 O   0  0  0  0  0  0  0  0  0  0  0  0
   -0.9255    1.6371   -0.2054 C   0  0  0  0  0  0  0  0  0  0  0  0
   -1.5952    0.5145    0.2494 C   0  0  0  0  0  0  0  0  0  0  0  0
   -3.0158    0.4243    0.2806 C   0  0  0  0  0  0  0  0  0  0  0  0
   -3.7435    1.4734   -0.2263 C   0  0  0  0  0  0  0  0  0  0  0  0
   -3.1129    2.6052   -0.8077 C   0  0  0  0  0  0  0  0  0  0  0  0
   -3.8770    3.6506   -1.3939 C   0  0  0  0  0  0  0  0  0  0  0  0
   -3.2610    4.7259   -1.9838 C   0  0  0  0  0  0  0  0  0  0  0  0
   -1.8472    4.7946   -2.0211 C   0  0  0  0  0  0  0  0  0  0  0  0
   -1.0825    3.8049   -1.4525 C   0  0  0  0  0  0  0  0  0  0  0  0
   -1.6914    2.6883   -0.8138 C   0  0  0  0  0  0  0  0  0  0  0  0
    0.5526    1.7308   -0.0536 C   0  0  0  0  0  0  0  0  0  0  0  0
    1.3456    0.7100   -0.5352 C   0  0  0  0  0  0  0  0  0  0  0  0
    2.7632    0.6938   -0.4202 C   0  0  0  0  0  0  0  0  0  0  0  0
    3.3684    1.7665    0.1900 C   0  0  0  0  0  0  0  0  0  0  0  0
    2.6100    2.8353    0.7369 C   0  0  0  0  0  0  0  0  0  0  0  0
    3.2506    3.9108    1.4119 C   0  0  0  0  0  0  0  0  0  0  0  0
    2.5162    4.9106    1.9981 C   0  0  0  0  0  0  0  0  0  0  0  0
    1.1021    4.8687    1.9451 C   0  0  0  0  0  0  0  0  0  0  0  0
    0.4544    3.8505    1.2881 C   0  0  0  0  0  0  0  0  0  0  0  0
    1.1871    2.8146    0.6437 C   0  0  0  0  0  0  0  0  0  0  0  0
    3.5376   -0.4645   -0.9490 C   0  0  0  0  0  0  0  0  0  0  0  0
    3.5557   -0.7078   -2.3063 C   0  0  0  0  0  0  0  0  0  0  0  0
    4.3005   -1.7793   -2.8505 C   0  0  0  0  0  0  0  0  0  0  0  0
    5.0174   -2.6088   -2.0253 C   0  0  0  0  0  0  0  0  0  0  0  0
    5.0062   -2.4137   -0.6183 C   0  0  0  0  0  0  0  0  0  0  0  0
    5.7196   -3.2838    0.2524 C   0  0  0  0  0  0  0  0  0  0  0  0
    5.6769   -3.1107    1.6130 C   0  0  0  0  0  0  0  0  0  0  0  0
    4.9083   -2.0578    2.1683 C   0  0  0  0  0  0  0  0  0  0  0  0
    4.2176   -1.1919    1.3553 C   0  0  0  0  0  0  0  0  0  0  0  0
    4.2537   -1.3347   -0.0623 C   0  0  0  0  0  0  0  0  0  0  0  0
   -3.6879   -0.7500    0.9097 C   0  0  0  0  0  0  0  0  0  0  0  0
   -4.1335   -0.6496    2.2091 C   0  0  0  0  0  0  0  0  0  0  0  0
   -4.7890   -1.7339    2.8419 C   0  0  0  0  0  0  0  0  0  0  0  0
   -4.9922   -2.9065    2.1602 C   0  0  0  0  0  0  0  0  0  0  0  0
   -4.5545   -3.0490    0.8152 C   0  0  0  0  0  0  0  0  0  0  0  0
   -4.7672   -4.2510    0.0888 C   0  0  0  0  0  0  0  0  0  0  0  0
   -4.3443   -4.3695   -1.2126 C   0  0  0  0  0  0  0  0  0  0  0  0
   -3.6895   -3.2881   -1.8491 C   0  0  0  0  0  0  0  0  0  0  0  0
   -3.4731   -2.1118   -1.1745 C   0  0  0  0  0  0  0  0  0  0  0  0
   -3.8927   -1.9598    0.1741 C   0  0  0  0  0  0  0  0  0  0  0  0
    1.7151   -2.5700    0.7380 H   0  0  0  0  0  0  0  0  0  0  0  0
   -4.8343    1.4257   -0.2009 H   0  0  0  0  0  0  0  0  0  0  0  0
   -4.9659    3.5741   -1.3728 H   0  0  0  0  0  0  0  0  0  0  0  0
   -3.8556    5.5210   -2.4357 H   0  0  0  0  0  0  0  0  0  0  0  0
   -1.3598    5.6381   -2.5122 H   0  0  0  0  0  0  0  0  0  0  0  0
    0.0052    3.8641   -1.4963 H   0  0  0  0  0  0  0  0  0  0  0  0
    4.4568    1.7869    0.2833 H   0  0  0  0  0  0  0  0  0  0  0  0
    4.3412    3.9172    1.4626 H   0  0  0  0  0  0  0  0  0  0  0  0
    3.0171    5.7289    2.5172 H   0  0  0  0  0  0  0  0  0  0  0  0
    0.5203    5.6493    2.4372 H   0  0  0  0  0  0  0  0  0  0  0  0
   -0.6346    3.8262    1.2654 H   0  0  0  0  0  0  0  0  0  0  0  0
    2.9841   -0.0552   -2.9684 H   0  0  0  0  0  0  0  0  0  0  0  0
    4.3011   -1.9393   -3.9293 H   0  0  0  0  0  0  0  0  0  0  0  0
    5.5996   -3.4364   -2.4355 H   0  0  0  0  0  0  0  0  0  0  0  0
    6.2983   -4.0990   -0.1872 H   0  0  0  0  0  0  0  0  0  0  0  0
    6.2262   -3.7865    2.2701 H   0  0  0  0  0  0  0  0  0  0  0  0
    4.8613   -1.9365    3.2515 H   0  0  0  0  0  0  0  0  0  0  0  0
    3.6102   -0.3990    1.7926 H   0  0  0  0  0  0  0  0  0  0  0  0
   -3.9695    0.2804    2.7568 H   0  0  0  0  0  0  0  0  0  0  0  0
   -5.1286   -1.6290    3.8732 H   0  0  0  0  0  0  0  0  0  0  0  0
   -5.4958   -3.7488    2.6393 H   0  0  0  0  0  0  0  0  0  0  0  0
   -5.2741   -5.0800    0.5874 H   0  0  0  0  0  0  0  0  0  0  0  0
   -4.5098   -5.2994   -1.7588 H   0  0  0  0  0  0  0  0  0  0  0  0
   -3.3416   -3.3939   -2.8771 H   0  0  0  0  0  0  0  0  0  0  0  0
   -2.9581   -1.2870   -1.6699 H   0  0  0  0  0  0  0  0  0  0  0  0
  1  2  2  0  0  0  0
  1  3  1  0  0  0  0
  1  4  1  0  0  0  0
  1  5  1  0  0  0  0
  3 46  1  0  0  0  0
  4  7  1  0  0  0  0
  5 17  1  0  0  0  0
  6  7  2  0  0  0  0
  6 15  1  0  0  0  0
  6 16  1  0  0  0  0
  7  8  1  0  0  0  0
  8  9  2  0  0  0  0
  8 36  1  0  0  0  0
  9 10  1  0  0  0  0
  9 47  1  0  0  0  0
 10 11  2  0  0  0  0
 10 15  1  0  0  0  0
 11 12  1  0  0  0  0
 11 48  1  0  0  0  0
 12 13  2  0  0  0  0
 12 49  1  0  0  0  0
 13 14  1  0  0  0  0
 13 50  1  0  0  0  0
 14 15  2  0  0  0  0
 14 51  1  0  0  0  0
 16 17  2  0  0  0  0
 16 25  1  0  0  0  0
 17 18  1  0  0  0  0
 18 19  2  0  0  0  0
 18 26  1  0  0  0  0
 19 20  1  0  0  0  0
 19 52  1  0  0  0  0
 20 21  2  0  0  0  0
 20 25  1  0  0  0  0
 21 22  1  0  0  0  0
 21 53  1  0  0  0  0
 22 23  2  0  0  0  0
 22 54  1  0  0  0  0
 23 24  1  0  0  0  0
 23 55  1  0  0  0  0
 24 25  2  0  0  0  0
 24 56  1  0  0  0  0
 26 27  2  0  0  0  0
 26 35  1  0  0  0  0
 27 28  1  0  0  0  0
 27 57  1  0  0  0  0
 28 29  2  0  0  0  0
 28 58  1  0  0  0  0
 29 30  1  0  0  0  0
 29 59  1  0  0  0  0
 30 31  2  0  0  0  0
 30 35  1  0  0  0  0
 31 32  1  0  0  0  0
 31 60  1  0  0  0  0
 32 33  2  0  0  0  0
 32 61  1  0  0  0  0
 33 34  1  0  0  0  0
 33 62  1  0  0  0  0
 34 35  2  0  0  0  0
 34 63  1  0  0  0  0
 36 37  2  0  0  0  0
 36 45  1  0  0  0  0
 37 38  1  0  0  0  0
 37 64  1  0  0  0  0
 38 39  2  0  0  0  0
 38 65  1  0  0  0  0
 39 40  1  0  0  0  0
 39 66  1  0  0  0  0
 40 41  2  0  0  0  0
 40 45  1  0  0  0  0
 41 42  1  0  0  0  0
 41 67  1  0  0  0  0
 42 43  2  0  0  0  0
 42 68  1  0  0  0  0
 43 44  1  0  0  0  0
 43 69  1  0  0  0  0
 44 45  2  0  0  0  0
 44 70  1  0  0  0  0
M  END
$$$$
