Title Card Required
 OpenBabel03192317573D

 49 52  0  0  0  0  0  0  0  0999 V2000
   -0.0000   -2.3327    0.0003 C   0  0  0  0  0  0  0  0  0  0  0  0
   -0.2066   -3.2131    1.2653 C   0  0  0  0  0  0  0  0  0  0  0  0
    1.2076   -3.4661    1.8128 C   0  0  0  0  0  0  0  0  0  0  0  0
    1.9643   -2.2388    1.3645 C   0  0  0  0  0  0  0  0  0  0  0  0
    3.1917   -1.7597    1.8125 C   0  0  0  0  0  0  0  0  0  0  0  0
    3.6974   -0.5783    1.2710 C   0  0  0  0  0  0  0  0  0  0  0  0
    2.9747    0.1053    0.2921 C   0  0  0  0  0  0  0  0  0  0  0  0
    1.7452   -0.3804   -0.1840 C   0  0  0  0  0  0  0  0  0  0  0  0
    1.2533   -1.5660    0.3673 C   0  0  0  0  0  0  0  0  0  0  0  0
    0.2065   -3.2135   -1.2645 C   0  0  0  0  0  0  0  0  0  0  0  0
   -1.2076   -3.4664   -1.8122 C   0  0  0  0  0  0  0  0  0  0  0  0
   -1.9644   -2.2391   -1.3640 C   0  0  0  0  0  0  0  0  0  0  0  0
   -3.1918   -1.7601   -1.8120 C   0  0  0  0  0  0  0  0  0  0  0  0
   -3.6975   -0.5786   -1.2708 C   0  0  0  0  0  0  0  0  0  0  0  0
   -2.9747    0.1053   -0.2921 C   0  0  0  0  0  0  0  0  0  0  0  0
   -1.7452   -0.3803    0.1841 C   0  0  0  0  0  0  0  0  0  0  0  0
   -1.2534   -1.5661   -0.3669 C   0  0  0  0  0  0  0  0  0  0  0  0
   -1.0306    0.3119    1.1100 O   0  0  0  0  0  0  0  0  0  0  0  0
   -1.3955    0.1690    2.4712 C   0  0  0  0  0  0  0  0  0  0  0  0
   -0.4814   -0.5890    3.1684 O   0  0  0  0  0  0  0  0  0  0  0  0
    0.7340    0.0833    3.4140 C   0  0  0  0  0  0  0  0  0  0  0  0
    1.0307    0.3117   -1.1101 O   0  0  0  0  0  0  0  0  0  0  0  0
    1.3955    0.1684   -2.4713 C   0  0  0  0  0  0  0  0  0  0  0  0
    0.4815   -0.5900   -3.1682 O   0  0  0  0  0  0  0  0  0  0  0  0
   -0.7339    0.0821   -3.4142 C   0  0  0  0  0  0  0  0  0  0  0  0
   -3.7219    1.9224    0.4604 I   0  0  0  0  0  0  0  0  0  0  0  0
    3.7220    1.9222   -0.4607 I   0  0  0  0  0  0  0  0  0  0  0  0
   -0.7629   -4.1330    1.0335 H   0  0  0  0  0  0  0  0  0  0  0  0
   -0.7722   -2.6376    2.0097 H   0  0  0  0  0  0  0  0  0  0  0  0
    1.6611   -4.3711    1.3745 H   0  0  0  0  0  0  0  0  0  0  0  0
    1.2215   -3.5917    2.9049 H   0  0  0  0  0  0  0  0  0  0  0  0
    3.7491   -2.2863    2.5894 H   0  0  0  0  0  0  0  0  0  0  0  0
    4.6486   -0.1749    1.6196 H   0  0  0  0  0  0  0  0  0  0  0  0
    0.7724   -2.6383   -2.0090 H   0  0  0  0  0  0  0  0  0  0  0  0
    0.7626   -4.1334   -1.0324 H   0  0  0  0  0  0  0  0  0  0  0  0
   -1.2214   -3.5918   -2.9043 H   0  0  0  0  0  0  0  0  0  0  0  0
   -1.6612   -4.3715   -1.3741 H   0  0  0  0  0  0  0  0  0  0  0  0
   -3.7493   -2.2869   -2.5888 H   0  0  0  0  0  0  0  0  0  0  0  0
   -4.6487   -0.1753   -1.6195 H   0  0  0  0  0  0  0  0  0  0  0  0
   -1.4570    1.1909    2.8850 H   0  0  0  0  0  0  0  0  0  0  0  0
   -2.3727   -0.3322    2.5472 H   0  0  0  0  0  0  0  0  0  0  0  0
    1.2233    0.3860    2.4746 H   0  0  0  0  0  0  0  0  0  0  0  0
    0.5609    0.9784    4.0376 H   0  0  0  0  0  0  0  0  0  0  0  0
    1.3916   -0.6092    3.9522 H   0  0  0  0  0  0  0  0  0  0  0  0
    1.4566    1.1902   -2.8854 H   0  0  0  0  0  0  0  0  0  0  0  0
    2.3728   -0.3326   -2.5472 H   0  0  0  0  0  0  0  0  0  0  0  0
   -1.2235    0.3850   -2.4749 H   0  0  0  0  0  0  0  0  0  0  0  0
   -0.5609    0.9770   -4.0380 H   0  0  0  0  0  0  0  0  0  0  0  0
   -1.3914   -0.6106   -3.9523 H   0  0  0  0  0  0  0  0  0  0  0  0
  1  2  1  0  0  0  0
  1  9  1  0  0  0  0
  1 10  1  0  0  0  0
  1 17  1  0  0  0  0
  2  3  1  0  0  0  0
  2 28  1  0  0  0  0
  2 29  1  0  0  0  0
  3  4  1  0  0  0  0
  3 30  1  0  0  0  0
  3 31  1  0  0  0  0
  4  5  2  0  0  0  0
  4  9  1  0  0  0  0
  5  6  1  0  0  0  0
  5 32  1  0  0  0  0
  6  7  2  0  0  0  0
  6 33  1  0  0  0  0
  7  8  1  0  0  0  0
  7 27  1  0  0  0  0
  8  9  2  0  0  0  0
  8 22  1  0  0  0  0
 10 11  1  0  0  0  0
 10 34  1  0  0  0  0
 10 35  1  0  0  0  0
 11 12  1  0  0  0  0
 11 36  1  0  0  0  0
 11 37  1  0  0  0  0
 12 13  2  0  0  0  0
 12 17  1  0  0  0  0
 13 14  1  0  0  0  0
 13 38  1  0  0  0  0
 14 15  2  0  0  0  0
 14 39  1  0  0  0  0
 15 16  1  0  0  0  0
 15 26  1  0  0  0  0
 16 17  2  0  0  0  0
 16 18  1  0  0  0  0
 18 19  1  0  0  0  0
 19 20  1  0  0  0  0
 19 40  1  0  0  0  0
 19 41  1  0  0  0  0
 20 21  1  0  0  0  0
 21 42  1  0  0  0  0
 21 43  1  0  0  0  0
 21 44  1  0  0  0  0
 22 23  1  0  0  0  0
 23 24  1  0  0  0  0
 23 45  1  0  0  0  0
 23 46  1  0  0  0  0
 24 25  1  0  0  0  0
 25 47  1  0  0  0  0
 25 48  1  0  0  0  0
 25 49  1  0  0  0  0
M  END
$$$$
