Title Card Required
 OpenBabel03192317473D

 21 21  0  0  1  0  0  0  0  0999 V2000
   -1.9817   -1.1710    0.0963 N   0  0  0  0  0  0  0  0  0  0  0  0
   -1.6438    1.5495   -0.1462 O   0  0  0  0  0  0  0  0  0  0  0  0
    0.7425    1.4316   -0.1360 C   0  0  0  0  0  0  0  0  0  0  0  0
    1.9461    0.5862    0.2787 C   0  0  0  0  0  0  0  0  0  0  0  0
    1.8433   -0.8342   -0.2800 C   0  0  0  0  0  0  0  0  0  0  0  0
    0.5269   -1.4938    0.1328 C   0  0  0  0  0  0  0  0  0  0  0  0
   -0.6744   -0.6435   -0.2817 C   0  0  2  0  0  0  0  0  0  0  0  0
   -0.5627    0.7743    0.2844 C   0  0  2  0  0  0  0  0  0  0  0  0
   -2.2120   -2.0034   -0.4417 H   0  0  0  0  0  0  0  0  0  0  0  0
   -1.9726   -1.4498    1.0780 H   0  0  0  0  0  0  0  0  0  0  0  0
   -2.4036    0.9472   -0.1295 H   0  0  0  0  0  0  0  0  0  0  0  0
    0.7916    2.4417    0.2964 H   0  0  0  0  0  0  0  0  0  0  0  0
    0.7179    1.5534   -1.2321 H   0  0  0  0  0  0  0  0  0  0  0  0
    2.8794    1.0626   -0.0558 H   0  0  0  0  0  0  0  0  0  0  0  0
    1.9955    0.5376    1.3803 H   0  0  0  0  0  0  0  0  0  0  0  0
    1.8931   -0.7924   -1.3817 H   0  0  0  0  0  0  0  0  0  0  0  0
    2.6977   -1.4434    0.0507 H   0  0  0  0  0  0  0  0  0  0  0  0
    0.4366   -2.5015   -0.3040 H   0  0  0  0  0  0  0  0  0  0  0  0
    0.5051   -1.6200    1.2310 H   0  0  0  0  0  0  0  0  0  0  0  0
   -0.6742   -0.5351   -1.3811 H   0  0  0  0  0  0  0  0  0  0  0  0
   -0.5624    0.6802    1.3954 H   0  0  0  0  0  0  0  0  0  0  0  0
  1  7  1  0  0  0  0
  1  9  1  0  0  0  0
  1 10  1  0  0  0  0
  2  8  1  0  0  0  0
  2 11  1  0  0  0  0
  3  4  1  0  0  0  0
  3  8  1  0  0  0  0
  3 12  1  0  0  0  0
  3 13  1  0  0  0  0
  4  5  1  0  0  0  0
  4 14  1  0  0  0  0
  4 15  1  0  0  0  0
  5  6  1  0  0  0  0
  5 16  1  0  0  0  0
  5 17  1  0  0  0  0
  6  7  1  0  0  0  0
  6 18  1  0  0  0  0
  6 19  1  0  0  0  0
  7  8  1  0  0  0  0
  7 20  1  6  0  0  0
  8 21  1  1  0  0  0
M  END
$$$$
