Title Card Required
 OpenBabel03192317483D

 65 69  0  0  1  0  0  0  0  0999 V2000
    0.9820    0.0161    1.6404 O   0  0  0  0  0  0  0  0  0  0  0  0
    0.0385   -0.8887    2.2093 C   0  0  0  0  0  0  0  0  0  0  0  0
   -1.1056   -0.7611    1.3971 O   0  0  0  0  0  0  0  0  0  0  0  0
   -0.6839   -0.4678    0.0881 C   0  0  2  0  0  0  0  0  0  0  0  0
    0.6206    0.3452    0.3154 C   0  0  2  0  0  0  0  0  0  0  0  0
   -1.8391    0.2026   -0.7042 C   0  0  0  0  0  0  0  0  0  0  0  0
   -1.4268    0.2753   -2.0588 O   0  0  0  0  0  0  0  0  0  0  0  0
    1.7826    0.0853   -0.6893 C   0  0  0  0  0  0  0  0  0  0  0  0
    1.2696    0.2561   -1.9944 O   0  0  0  0  0  0  0  0  0  0  0  0
    2.8755    1.1456   -0.5395 C   0  0  0  0  0  0  0  0  0  0  0  0
    3.0497    1.8998    0.6236 C   0  0  0  0  0  0  0  0  0  0  0  0
    4.0786    2.8406    0.7045 C   0  0  0  0  0  0  0  0  0  0  0  0
    4.9368    3.0403   -0.3728 C   0  0  0  0  0  0  0  0  0  0  0  0
    4.7638    2.2915   -1.5378 C   0  0  0  0  0  0  0  0  0  0  0  0
    3.7419    1.3507   -1.6194 C   0  0  0  0  0  0  0  0  0  0  0  0
    2.3833   -1.3101   -0.4987 C   0  0  0  0  0  0  0  0  0  0  0  0
    2.0224   -2.3745   -1.3298 C   0  0  0  0  0  0  0  0  0  0  0  0
    2.5243   -3.6580   -1.1063 C   0  0  0  0  0  0  0  0  0  0  0  0
    3.4086   -3.8903   -0.0563 C   0  0  0  0  0  0  0  0  0  0  0  0
    3.7962   -2.8285    0.7617 C   0  0  0  0  0  0  0  0  0  0  0  0
    3.2878   -1.5517    0.5428 C   0  0  0  0  0  0  0  0  0  0  0  0
   -3.0425   -0.7407   -0.6555 C   0  0  0  0  0  0  0  0  0  0  0  0
   -3.9017   -0.7432    0.4479 C   0  0  0  0  0  0  0  0  0  0  0  0
   -4.9724   -1.6305    0.5054 C   0  0  0  0  0  0  0  0  0  0  0  0
   -5.1998   -2.5257   -0.5402 C   0  0  0  0  0  0  0  0  0  0  0  0
   -4.3481   -2.5261   -1.6420 C   0  0  0  0  0  0  0  0  0  0  0  0
   -3.2733   -1.6377   -1.7011 C   0  0  0  0  0  0  0  0  0  0  0  0
   -2.2435    1.6015   -0.2285 C   0  0  0  0  0  0  0  0  0  0  0  0
   -1.9966    2.0979    1.0554 C   0  0  0  0  0  0  0  0  0  0  0  0
   -2.4191    3.3792    1.4121 C   0  0  0  0  0  0  0  0  0  0  0  0
   -3.1008    4.1782    0.4980 C   0  0  0  0  0  0  0  0  0  0  0  0
   -3.3610    3.6868   -0.7808 C   0  0  0  0  0  0  0  0  0  0  0  0
   -2.9369    2.4099   -1.1389 C   0  0  0  0  0  0  0  0  0  0  0  0
    0.5547   -2.3209    2.1876 C   0  0  0  0  0  0  0  0  0  0  0  0
   -0.2991   -0.4272    3.6124 C   0  0  0  0  0  0  0  0  0  0  0  0
   -0.4604   -1.4045   -0.4615 H   0  0  0  0  0  0  0  0  0  0  0  0
    0.4035    1.4253    0.2556 H   0  0  0  0  0  0  0  0  0  0  0  0
   -0.7929    1.0034   -2.1390 H   0  0  0  0  0  0  0  0  0  0  0  0
    0.5799   -0.4009   -2.1611 H   0  0  0  0  0  0  0  0  0  0  0  0
    2.3904    1.7474    1.4784 H   0  0  0  0  0  0  0  0  0  0  0  0
    4.2036    3.4218    1.6195 H   0  0  0  0  0  0  0  0  0  0  0  0
    5.7378    3.7783   -0.3071 H   0  0  0  0  0  0  0  0  0  0  0  0
    5.4297    2.4436   -2.3888 H   0  0  0  0  0  0  0  0  0  0  0  0
    3.5956    0.7681   -2.5298 H   0  0  0  0  0  0  0  0  0  0  0  0
    1.3508   -2.2193   -2.1761 H   0  0  0  0  0  0  0  0  0  0  0  0
    2.2270   -4.4758   -1.7643 H   0  0  0  0  0  0  0  0  0  0  0  0
    3.8056   -4.8918    0.1158 H   0  0  0  0  0  0  0  0  0  0  0  0
    4.5019   -2.9960    1.5771 H   0  0  0  0  0  0  0  0  0  0  0  0
    3.5896   -0.7267    1.1891 H   0  0  0  0  0  0  0  0  0  0  0  0
   -3.7293   -0.0421    1.2653 H   0  0  0  0  0  0  0  0  0  0  0  0
   -5.6364   -1.6195    1.3711 H   0  0  0  0  0  0  0  0  0  0  0  0
   -6.0421   -3.2180   -0.4966 H   0  0  0  0  0  0  0  0  0  0  0  0
   -4.5214   -3.2193   -2.4668 H   0  0  0  0  0  0  0  0  0  0  0  0
   -2.6148   -1.6282   -2.5692 H   0  0  0  0  0  0  0  0  0  0  0  0
   -1.4747    1.4820    1.7848 H   0  0  0  0  0  0  0  0  0  0  0  0
   -2.2113    3.7523    2.4163 H   0  0  0  0  0  0  0  0  0  0  0  0
   -3.4293    5.1793    0.7810 H   0  0  0  0  0  0  0  0  0  0  0  0
   -3.9002    4.3000   -1.5045 H   0  0  0  0  0  0  0  0  0  0  0  0
   -3.1452    2.0209   -2.1369 H   0  0  0  0  0  0  0  0  0  0  0  0
   -0.1921   -2.9784    2.6530 H   0  0  0  0  0  0  0  0  0  0  0  0
    0.7405   -2.6664    1.1613 H   0  0  0  0  0  0  0  0  0  0  0  0
    1.4976   -2.3876    2.7455 H   0  0  0  0  0  0  0  0  0  0  0  0
   -0.6346    0.6174    3.5938 H   0  0  0  0  0  0  0  0  0  0  0  0
   -1.0957   -1.0566    4.0295 H   0  0  0  0  0  0  0  0  0  0  0  0
    0.5899   -0.5019    4.2518 H   0  0  0  0  0  0  0  0  0  0  0  0
  1  2  1  0  0  0  0
  1  5  1  0  0  0  0
  2  3  1  0  0  0  0
  2 34  1  0  0  0  0
  2 35  1  0  0  0  0
  3  4  1  0  0  0  0
  4  5  1  0  0  0  0
  4  6  1  0  0  0  0
  4 36  1  6  0  0  0
  5  8  1  0  0  0  0
  5 37  1  6  0  0  0
  6  7  1  0  0  0  0
  6 22  1  0  0  0  0
  6 28  1  0  0  0  0
  7 38  1  0  0  0  0
  8  9  1  0  0  0  0
  8 10  1  0  0  0  0
  8 16  1  0  0  0  0
  9 39  1  0  0  0  0
 10 11  2  0  0  0  0
 10 15  1  0  0  0  0
 11 12  1  0  0  0  0
 11 40  1  0  0  0  0
 12 13  2  0  0  0  0
 12 41  1  0  0  0  0
 13 14  1  0  0  0  0
 13 42  1  0  0  0  0
 14 15  2  0  0  0  0
 14 43  1  0  0  0  0
 15 44  1  0  0  0  0
 16 17  2  0  0  0  0
 16 21  1  0  0  0  0
 17 18  1  0  0  0  0
 17 45  1  0  0  0  0
 18 19  2  0  0  0  0
 18 46  1  0  0  0  0
 19 20  1  0  0  0  0
 19 47  1  0  0  0  0
 20 21  2  0  0  0  0
 20 48  1  0  0  0  0
 21 49  1  0  0  0  0
 22 23  2  0  0  0  0
 22 27  1  0  0  0  0
 23 24  1  0  0  0  0
 23 50  1  0  0  0  0
 24 25  2  0  0  0  0
 24 51  1  0  0  0  0
 25 26  1  0  0  0  0
 25 52  1  0  0  0  0
 26 27  2  0  0  0  0
 26 53  1  0  0  0  0
 27 54  1  0  0  0  0
 28 29  2  0  0  0  0
 28 33  1  0  0  0  0
 29 30  1  0  0  0  0
 29 55  1  0  0  0  0
 30 31  2  0  0  0  0
 30 56  1  0  0  0  0
 31 32  1  0  0  0  0
 31 57  1  0  0  0  0
 32 33  2  0  0  0  0
 32 58  1  0  0  0  0
 33 59  1  0  0  0  0
 34 60  1  0  0  0  0
 34 61  1  0  0  0  0
 34 62  1  0  0  0  0
 35 63  1  0  0  0  0
 35 64  1  0  0  0  0
 35 65  1  0  0  0  0
M  END
$$$$
