Title Card Required
 OpenBabel03192317563D

 65 69  0  0  1  0  0  0  0  0999 V2000
   -0.9589   -1.1009    1.5900 O   0  0  0  0  0  0  0  0  0  0  0  0
    0.0007   -2.1588    1.6182 C   0  0  0  0  0  0  0  0  0  0  0  0
    0.9717   -1.8184    0.6527 O   0  0  0  0  0  0  0  0  0  0  0  0
    0.8003   -0.5143    0.1681 C   0  0  1  0  0  0  0  0  0  0  0  0
   -0.5687   -0.0670    0.7277 C   0  0  1  0  0  0  0  0  0  0  0  0
    0.6254   -2.2331    3.0018 C   0  0  0  0  0  0  0  0  0  0  0  0
   -0.6535   -3.4633    1.2040 C   0  0  0  0  0  0  0  0  0  0  0  0
    1.9654    0.4166    0.5971 C   0  0  0  0  0  0  0  0  0  0  0  0
    1.9841    0.5741    1.9996 O   0  0  0  0  0  0  0  0  0  0  0  0
    3.3276   -0.1608    0.2192 C   0  0  0  0  0  0  0  0  0  0  0  0
    3.4945   -1.2077   -0.6898 C   0  0  0  0  0  0  0  0  0  0  0  0
    4.7758   -1.6423   -1.0347 C   0  0  0  0  0  0  0  0  0  0  0  0
    5.8987   -1.0446   -0.4694 C   0  0  0  0  0  0  0  0  0  0  0  0
    5.7366   -0.0062    0.4487 C   0  0  0  0  0  0  0  0  0  0  0  0
    4.4604    0.4321    0.7878 C   0  0  0  0  0  0  0  0  0  0  0  0
    1.7670    1.7607   -0.1156 C   0  0  0  0  0  0  0  0  0  0  0  0
    1.3232    2.8898    0.5762 C   0  0  0  0  0  0  0  0  0  0  0  0
    1.0457    4.0798   -0.1031 C   0  0  0  0  0  0  0  0  0  0  0  0
    1.2211    4.1553   -1.4823 C   0  0  0  0  0  0  0  0  0  0  0  0
    1.6894    3.0382   -2.1778 C   0  0  0  0  0  0  0  0  0  0  0  0
    1.9610    1.8546   -1.4997 C   0  0  0  0  0  0  0  0  0  0  0  0
   -1.6379    0.2394   -0.3650 C   0  0  0  0  0  0  0  0  0  0  0  0
   -1.0334    1.0655   -1.3386 O   0  0  0  0  0  0  0  0  0  0  0  0
   -2.0564   -1.0464   -1.0677 C   0  0  0  0  0  0  0  0  0  0  0  0
   -3.0761   -1.8518   -0.5493 C   0  0  0  0  0  0  0  0  0  0  0  0
   -3.4128   -3.0516   -1.1716 C   0  0  0  0  0  0  0  0  0  0  0  0
   -2.7326   -3.4640   -2.3174 C   0  0  0  0  0  0  0  0  0  0  0  0
   -1.7252   -2.6596   -2.8464 C   0  0  0  0  0  0  0  0  0  0  0  0
   -1.3943   -1.4528   -2.2302 C   0  0  0  0  0  0  0  0  0  0  0  0
   -2.8482    0.9594    0.2350 C   0  0  0  0  0  0  0  0  0  0  0  0
   -3.6724    1.6824   -0.6363 C   0  0  0  0  0  0  0  0  0  0  0  0
   -4.7893    2.3598   -0.1567 C   0  0  0  0  0  0  0  0  0  0  0  0
   -5.1009    2.3224    1.2034 C   0  0  0  0  0  0  0  0  0  0  0  0
   -4.2885    1.6025    2.0750 C   0  0  0  0  0  0  0  0  0  0  0  0
   -3.1666    0.9225    1.5960 C   0  0  0  0  0  0  0  0  0  0  0  0
    0.7709   -0.5411   -0.9300 H   0  0  0  0  0  0  0  0  0  0  0  0
   -0.4749    0.8745    1.3043 H   0  0  0  0  0  0  0  0  0  0  0  0
    1.3567   -3.0515    3.0315 H   0  0  0  0  0  0  0  0  0  0  0  0
    1.1509   -1.2965    3.2217 H   0  0  0  0  0  0  0  0  0  0  0  0
   -0.1526   -2.4179    3.7547 H   0  0  0  0  0  0  0  0  0  0  0  0
   -0.9918   -3.3909    0.1629 H   0  0  0  0  0  0  0  0  0  0  0  0
    0.0756   -4.2802    1.2886 H   0  0  0  0  0  0  0  0  0  0  0  0
   -1.5126   -3.6791    1.8538 H   0  0  0  0  0  0  0  0  0  0  0  0
    1.1141    0.8612    2.2999 H   0  0  0  0  0  0  0  0  0  0  0  0
    2.6299   -1.7147   -1.1183 H   0  0  0  0  0  0  0  0  0  0  0  0
    4.8916   -2.4621   -1.7454 H   0  0  0  0  0  0  0  0  0  0  0  0
    6.8983   -1.3890   -0.7393 H   0  0  0  0  0  0  0  0  0  0  0  0
    6.6099    0.4654    0.9021 H   0  0  0  0  0  0  0  0  0  0  0  0
    4.3256    1.2417    1.5064 H   0  0  0  0  0  0  0  0  0  0  0  0
    1.2051    2.8555    1.6603 H   0  0  0  0  0  0  0  0  0  0  0  0
    0.6978    4.9508    0.4544 H   0  0  0  0  0  0  0  0  0  0  0  0
    1.0037    5.0824   -2.0144 H   0  0  0  0  0  0  0  0  0  0  0  0
    1.8402    3.0894   -3.2569 H   0  0  0  0  0  0  0  0  0  0  0  0
    2.3277    0.9859   -2.0511 H   0  0  0  0  0  0  0  0  0  0  0  0
   -0.7551    1.8958   -0.9255 H   0  0  0  0  0  0  0  0  0  0  0  0
   -3.6056   -1.5370    0.3512 H   0  0  0  0  0  0  0  0  0  0  0  0
   -4.2100   -3.6705   -0.7567 H   0  0  0  0  0  0  0  0  0  0  0  0
   -2.9944   -4.4055   -2.8029 H   0  0  0  0  0  0  0  0  0  0  0  0
   -1.1982   -2.9657   -3.7516 H   0  0  0  0  0  0  0  0  0  0  0  0
   -0.6337   -0.8021   -2.6616 H   0  0  0  0  0  0  0  0  0  0  0  0
   -3.4196    1.7083   -1.6976 H   0  0  0  0  0  0  0  0  0  0  0  0
   -5.4214    2.9208   -0.8470 H   0  0  0  0  0  0  0  0  0  0  0  0
   -5.9761    2.8536    1.5809 H   0  0  0  0  0  0  0  0  0  0  0  0
   -4.5258    1.5658    3.1395 H   0  0  0  0  0  0  0  0  0  0  0  0
   -2.5510    0.3440    2.2858 H   0  0  0  0  0  0  0  0  0  0  0  0
  1  2  1  0  0  0  0
  1  5  1  0  0  0  0
  2  3  1  0  0  0  0
  2  6  1  0  0  0  0
  2  7  1  0  0  0  0
  3  4  1  0  0  0  0
  4  5  1  0  0  0  0
  4  8  1  0  0  0  0
  4 36  1  6  0  0  0
  5 22  1  0  0  0  0
  5 37  1  1  0  0  0
  6 38  1  0  0  0  0
  6 39  1  0  0  0  0
  6 40  1  0  0  0  0
  7 41  1  0  0  0  0
  7 42  1  0  0  0  0
  7 43  1  0  0  0  0
  8  9  1  0  0  0  0
  8 10  1  0  0  0  0
  8 16  1  0  0  0  0
  9 44  1  0  0  0  0
 10 11  2  0  0  0  0
 10 15  1  0  0  0  0
 11 12  1  0  0  0  0
 11 45  1  0  0  0  0
 12 13  2  0  0  0  0
 12 46  1  0  0  0  0
 13 14  1  0  0  0  0
 13 47  1  0  0  0  0
 14 15  2  0  0  0  0
 14 48  1  0  0  0  0
 15 49  1  0  0  0  0
 16 17  2  0  0  0  0
 16 21  1  0  0  0  0
 17 18  1  0  0  0  0
 17 50  1  0  0  0  0
 18 19  2  0  0  0  0
 18 51  1  0  0  0  0
 19 20  1  0  0  0  0
 19 52  1  0  0  0  0
 20 21  2  0  0  0  0
 20 53  1  0  0  0  0
 21 54  1  0  0  0  0
 22 23  1  0  0  0  0
 22 24  1  0  0  0  0
 22 30  1  0  0  0  0
 23 55  1  0  0  0  0
 24 25  2  0  0  0  0
 24 29  1  0  0  0  0
 25 26  1  0  0  0  0
 25 56  1  0  0  0  0
 26 27  2  0  0  0  0
 26 57  1  0  0  0  0
 27 28  1  0  0  0  0
 27 58  1  0  0  0  0
 28 29  2  0  0  0  0
 28 59  1  0  0  0  0
 29 60  1  0  0  0  0
 30 31  2  0  0  0  0
 30 35  1  0  0  0  0
 31 32  1  0  0  0  0
 31 61  1  0  0  0  0
 32 33  2  0  0  0  0
 32 62  1  0  0  0  0
 33 34  1  0  0  0  0
 33 63  1  0  0  0  0
 34 35  2  0  0  0  0
 34 64  1  0  0  0  0
 35 65  1  0  0  0  0
M  END
$$$$
