Title Card Required
 OpenBabel03192317473D

 34 36  0  0  1  0  0  0  0  0999 V2000
   -1.4105   -1.6280   -0.3005 O   0  0  0  0  0  0  0  0  0  0  0  0
   -1.1351   -0.3226   -0.4720 C   0  0  0  0  0  0  0  0  0  0  0  0
   -2.0907    0.4713   -0.7377 N   0  0  0  0  0  0  0  0  0  0  0  0
   -3.3172   -0.3266   -0.7143 C   0  0  1  0  0  0  0  0  0  0  0  0
   -2.7987   -1.7802   -0.6012 C   0  0  0  0  0  0  0  0  0  0  0  0
    1.1767   -0.8319   -0.0913 N   0  0  0  0  0  0  0  0  0  0  0  0
    0.2835    0.0945   -0.3262 C   0  0  0  0  0  0  0  0  0  0  0  0
    0.5852    1.4815   -0.4549 C   0  0  0  0  0  0  0  0  0  0  0  0
    1.8889    1.8753   -0.3264 C   0  0  0  0  0  0  0  0  0  0  0  0
    2.8912    0.9009   -0.0719 C   0  0  0  0  0  0  0  0  0  0  0  0
    4.2663    1.2205    0.0731 C   0  0  0  0  0  0  0  0  0  0  0  0
    5.1873    0.2304    0.3161 C   0  0  0  0  0  0  0  0  0  0  0  0
    4.7753   -1.1222    0.4248 C   0  0  0  0  0  0  0  0  0  0  0  0
    3.4512   -1.4604    0.2900 C   0  0  0  0  0  0  0  0  0  0  0  0
    2.4756   -0.4570    0.0384 C   0  0  0  0  0  0  0  0  0  0  0  0
   -4.2329    0.1088    0.4437 C   0  0  0  0  0  0  0  0  0  0  0  0
   -3.5158    0.0293    1.7901 C   0  0  0  0  0  0  0  0  0  0  0  0
   -4.7810    1.5110    0.1942 C   0  0  0  0  0  0  0  0  0  0  0  0
   -3.8645   -0.1744   -1.6579 H   0  0  0  0  0  0  0  0  0  0  0  0
   -3.2771   -2.3551    0.2042 H   0  0  0  0  0  0  0  0  0  0  0  0
   -2.8917   -2.3395   -1.5436 H   0  0  0  0  0  0  0  0  0  0  0  0
   -0.2287    2.1780   -0.6519 H   0  0  0  0  0  0  0  0  0  0  0  0
    2.1725    2.9261   -0.4165 H   0  0  0  0  0  0  0  0  0  0  0  0
    4.5773    2.2638   -0.0121 H   0  0  0  0  0  0  0  0  0  0  0  0
    6.2433    0.4814    0.4261 H   0  0  0  0  0  0  0  0  0  0  0  0
    5.5199   -1.8965    0.6154 H   0  0  0  0  0  0  0  0  0  0  0  0
    3.1014   -2.4901    0.3675 H   0  0  0  0  0  0  0  0  0  0  0  0
   -5.0770   -0.6041    0.4501 H   0  0  0  0  0  0  0  0  0  0  0  0
   -2.7240    0.7911    1.8445 H   0  0  0  0  0  0  0  0  0  0  0  0
   -4.2186    0.2101    2.6158 H   0  0  0  0  0  0  0  0  0  0  0  0
   -3.0466   -0.9528    1.9549 H   0  0  0  0  0  0  0  0  0  0  0  0
   -5.3596    1.5543   -0.7404 H   0  0  0  0  0  0  0  0  0  0  0  0
   -5.4367    1.8305    1.0170 H   0  0  0  0  0  0  0  0  0  0  0  0
   -3.9505    2.2269    0.1123 H   0  0  0  0  0  0  0  0  0  0  0  0
  1  2  1  0  0  0  0
  1  5  1  0  0  0  0
  2  3  2  0  0  0  0
  2  7  1  0  0  0  0
  3  4  1  0  0  0  0
  4  5  1  0  0  0  0
  4 16  1  0  0  0  0
  4 19  1  6  0  0  0
  5 20  1  0  0  0  0
  5 21  1  0  0  0  0
  6  7  2  0  0  0  0
  6 15  1  0  0  0  0
  7  8  1  0  0  0  0
  8  9  2  0  0  0  0
  8 22  1  0  0  0  0
  9 10  1  0  0  0  0
  9 23  1  0  0  0  0
 10 11  2  0  0  0  0
 10 15  1  0  0  0  0
 11 12  1  0  0  0  0
 11 24  1  0  0  0  0
 12 13  2  0  0  0  0
 12 25  1  0  0  0  0
 13 14  1  0  0  0  0
 13 26  1  0  0  0  0
 14 15  2  0  0  0  0
 14 27  1  0  0  0  0
 16 17  1  0  0  0  0
 16 18  1  0  0  0  0
 16 28  1  0  0  0  0
 17 29  1  0  0  0  0
 17 30  1  0  0  0  0
 17 31  1  0  0  0  0
 18 32  1  0  0  0  0
 18 33  1  0  0  0  0
 18 34  1  0  0  0  0
M  END
$$$$
