Title Card Required
 OpenBabel03192317493D

 44 47  0  0  0  0  0  0  0  0999 V2000
   -1.7406    1.2921    1.2801 C   0  0  0  0  0  0  0  0  0  0  0  0
   -1.7789    0.0916    0.5094 C   0  0  0  0  0  0  0  0  0  0  0  0
   -3.0080   -0.6335    0.4631 C   0  0  0  0  0  0  0  0  0  0  0  0
   -4.1412   -0.1449    1.1658 C   0  0  0  0  0  0  0  0  0  0  0  0
   -4.0745    1.0185    1.8917 C   0  0  0  0  0  0  0  0  0  0  0  0
   -2.8551    1.7392    1.9473 C   0  0  0  0  0  0  0  0  0  0  0  0
   -0.6394   -0.3838   -0.2057 C   0  0  0  0  0  0  0  0  0  0  0  0
   -0.7238   -1.5721   -0.9435 C   0  0  0  0  0  0  0  0  0  0  0  0
   -1.9561   -2.2964   -0.9650 C   0  0  0  0  0  0  0  0  0  0  0  0
   -3.0542   -1.8357   -0.2887 C   0  0  0  0  0  0  0  0  0  0  0  0
    0.6394    0.3837   -0.2058 C   0  0  0  0  0  0  0  0  0  0  0  0
    1.7789   -0.0916    0.5094 C   0  0  0  0  0  0  0  0  0  0  0  0
    3.0080    0.6336    0.4629 C   0  0  0  0  0  0  0  0  0  0  0  0
    3.0541    1.8357   -0.2890 C   0  0  0  0  0  0  0  0  0  0  0  0
    1.9560    2.2963   -0.9654 C   0  0  0  0  0  0  0  0  0  0  0  0
    0.7237    1.5720   -0.9437 C   0  0  0  0  0  0  0  0  0  0  0  0
    1.7408   -1.2920    1.2801 C   0  0  0  0  0  0  0  0  0  0  0  0
    2.8553   -1.7390    1.9474 C   0  0  0  0  0  0  0  0  0  0  0  0
    4.0746   -1.0182    1.8917 C   0  0  0  0  0  0  0  0  0  0  0  0
    4.1413    0.1451    1.1657 C   0  0  0  0  0  0  0  0  0  0  0  0
    0.3554   -2.0398   -1.6418 N   0  0  0  0  0  0  0  0  0  0  0  0
    0.3792   -3.2960   -2.3385 C   0  0  0  0  0  0  0  0  0  0  0  0
   -0.3555    2.0396   -1.6420 N   0  0  0  0  0  0  0  0  0  0  0  0
   -0.3795    3.2958   -2.3386 C   0  0  0  0  0  0  0  0  0  0  0  0
   -0.8032    1.8481    1.3376 H   0  0  0  0  0  0  0  0  0  0  0  0
   -5.0704   -0.7175    1.1174 H   0  0  0  0  0  0  0  0  0  0  0  0
   -4.9500    1.3864    2.4282 H   0  0  0  0  0  0  0  0  0  0  0  0
   -2.8006    2.6583    2.5336 H   0  0  0  0  0  0  0  0  0  0  0  0
   -2.0237   -3.2233   -1.5337 H   0  0  0  0  0  0  0  0  0  0  0  0
   -3.9892   -2.3993   -0.3232 H   0  0  0  0  0  0  0  0  0  0  0  0
    3.9891    2.3994   -0.3236 H   0  0  0  0  0  0  0  0  0  0  0  0
    2.0235    3.2231   -1.5341 H   0  0  0  0  0  0  0  0  0  0  0  0
    0.8034   -1.8481    1.3377 H   0  0  0  0  0  0  0  0  0  0  0  0
    2.8009   -2.6580    2.5338 H   0  0  0  0  0  0  0  0  0  0  0  0
    4.9502   -1.3860    2.4283 H   0  0  0  0  0  0  0  0  0  0  0  0
    5.0704    0.7178    1.1173 H   0  0  0  0  0  0  0  0  0  0  0  0
    1.2166   -1.5187   -1.5493 H   0  0  0  0  0  0  0  0  0  0  0  0
    1.3745   -3.4400   -2.7749 H   0  0  0  0  0  0  0  0  0  0  0  0
    0.1757   -4.1521   -1.6712 H   0  0  0  0  0  0  0  0  0  0  0  0
   -0.3540   -3.3283   -3.1622 H   0  0  0  0  0  0  0  0  0  0  0  0
   -1.2166    1.5183   -1.5497 H   0  0  0  0  0  0  0  0  0  0  0  0
   -1.3749    3.4399   -2.7746 H   0  0  0  0  0  0  0  0  0  0  0  0
   -0.1756    4.1518   -1.6713 H   0  0  0  0  0  0  0  0  0  0  0  0
    0.3535    3.3281   -3.1625 H   0  0  0  0  0  0  0  0  0  0  0  0
  1  2  2  0  0  0  0
  1  6  1  0  0  0  0
  1 25  1  0  0  0  0
  2  3  1  0  0  0  0
  2  7  1  0  0  0  0
  3  4  2  0  0  0  0
  3 10  1  0  0  0  0
  4  5  1  0  0  0  0
  4 26  1  0  0  0  0
  5  6  2  0  0  0  0
  5 27  1  0  0  0  0
  6 28  1  0  0  0  0
  7  8  2  0  0  0  0
  7 11  1  0  0  0  0
  8  9  1  0  0  0  0
  8 21  1  0  0  0  0
  9 10  2  0  0  0  0
  9 29  1  0  0  0  0
 10 30  1  0  0  0  0
 11 12  2  0  0  0  0
 11 16  1  0  0  0  0
 12 13  1  0  0  0  0
 12 17  1  0  0  0  0
 13 14  2  0  0  0  0
 13 20  1  0  0  0  0
 14 15  1  0  0  0  0
 14 31  1  0  0  0  0
 15 16  2  0  0  0  0
 15 32  1  0  0  0  0
 16 23  1  0  0  0  0
 17 18  2  0  0  0  0
 17 33  1  0  0  0  0
 18 19  1  0  0  0  0
 18 34  1  0  0  0  0
 19 20  2  0  0  0  0
 19 35  1  0  0  0  0
 20 36  1  0  0  0  0
 21 22  1  0  0  0  0
 21 37  1  0  0  0  0
 22 38  1  0  0  0  0
 22 39  1  0  0  0  0
 22 40  1  0  0  0  0
 23 24  1  0  0  0  0
 23 41  1  0  0  0  0
 24 42  1  0  0  0  0
 24 43  1  0  0  0  0
 24 44  1  0  0  0  0
M  END
$$$$
