Title Card Required
 OpenBabel03192317423D

 58 62  0  0  1  0  0  0  0  0999 V2000
   -0.5082    2.4285    0.0105 C   0  0  0  0  0  0  0  0  0  0  0  0
   -1.5095    1.4616    0.2758 C   0  0  0  0  0  0  0  0  0  0  0  0
   -2.8264    1.9224    0.4084 C   0  0  0  0  0  0  0  0  0  0  0  0
   -3.1479    3.2735    0.2795 C   0  0  0  0  0  0  0  0  0  0  0  0
   -2.1534    4.2109    0.0182 C   0  0  0  0  0  0  0  0  0  0  0  0
   -0.8367    3.7836   -0.1137 C   0  0  0  0  0  0  0  0  0  0  0  0
   -1.0915   -0.3295    0.5829 P   0  0  0  0  0  0  0  0  0  0  0  0
   -2.7864   -1.0156    0.8921 C   0  0  0  0  0  0  0  0  0  0  0  0
   -3.6677   -1.4427   -0.1101 C   0  0  0  0  0  0  0  0  0  0  0  0
   -4.9236   -1.9500    0.2210 C   0  0  0  0  0  0  0  0  0  0  0  0
   -5.3173   -2.0367    1.5566 C   0  0  0  0  0  0  0  0  0  0  0  0
   -4.4462   -1.6213    2.5629 C   0  0  0  0  0  0  0  0  0  0  0  0
   -3.1870   -1.1233    2.2304 C   0  0  0  0  0  0  0  0  0  0  0  0
   -0.8105   -0.9758   -1.1226 C   0  0  0  0  0  0  0  0  0  0  0  0
   -1.0163   -0.2357   -2.2909 C   0  0  0  0  0  0  0  0  0  0  0  0
   -0.7740   -0.8065   -3.5405 C   0  0  0  0  0  0  0  0  0  0  0  0
   -0.3282   -2.1241   -3.6380 C   0  0  0  0  0  0  0  0  0  0  0  0
   -0.1210   -2.8692   -2.4777 C   0  0  0  0  0  0  0  0  0  0  0  0
   -0.3557   -2.2954   -1.2291 C   0  0  0  0  0  0  0  0  0  0  0  0
    5.0493    0.0770    0.3042 C   0  0  0  0  0  0  0  0  0  0  0  0
    5.8238   -0.7974    1.2901 C   0  0  0  0  0  0  0  0  0  0  0  0
    5.2853   -2.2279    1.2990 C   0  0  0  0  0  0  0  0  0  0  0  0
    3.7859   -2.2464    1.5952 C   0  0  0  0  0  0  0  0  0  0  0  0
    3.0102   -1.3732    0.6104 C   0  0  0  0  0  0  0  0  0  0  0  0
    3.5446    0.0610    0.5901 C   0  0  0  0  0  0  0  0  0  0  0  0
    3.0945    2.4385   -0.3253 C   0  0  0  0  0  0  0  0  0  0  0  0
    2.7857    0.9225   -0.4176 C   0  0  2  0  0  0  0  0  0  0  0  0
    1.3441    0.8590   -0.2173 N   0  0  0  0  0  0  0  0  0  0  0  0
    0.9050    2.0459   -0.1568 C   0  0  0  0  0  0  0  0  0  0  0  0
    1.8045    3.0541   -0.2785 O   0  0  0  0  0  0  0  0  0  0  0  0
   -3.6282    1.2142    0.6162 H   0  0  0  0  0  0  0  0  0  0  0  0
   -4.1873    3.5888    0.3845 H   0  0  0  0  0  0  0  0  0  0  0  0
   -2.3987    5.2689   -0.0823 H   0  0  0  0  0  0  0  0  0  0  0  0
   -0.0363    4.4951   -0.3157 H   0  0  0  0  0  0  0  0  0  0  0  0
   -3.3704   -1.3757   -1.1590 H   0  0  0  0  0  0  0  0  0  0  0  0
   -5.5997   -2.2795   -0.5699 H   0  0  0  0  0  0  0  0  0  0  0  0
   -6.3008   -2.4340    1.8129 H   0  0  0  0  0  0  0  0  0  0  0  0
   -4.7436   -1.6940    3.6104 H   0  0  0  0  0  0  0  0  0  0  0  0
   -2.4995   -0.8112    3.0211 H   0  0  0  0  0  0  0  0  0  0  0  0
   -1.3673    0.7969   -2.2274 H   0  0  0  0  0  0  0  0  0  0  0  0
   -0.9387   -0.2175   -4.4446 H   0  0  0  0  0  0  0  0  0  0  0  0
   -0.1425   -2.5695   -4.6168 H   0  0  0  0  0  0  0  0  0  0  0  0
    0.2298   -3.9005   -2.5437 H   0  0  0  0  0  0  0  0  0  0  0  0
   -0.1826   -2.8811   -0.3220 H   0  0  0  0  0  0  0  0  0  0  0  0
    5.4372    1.1091    0.3260 H   0  0  0  0  0  0  0  0  0  0  0  0
    5.2122   -0.3006   -0.7222 H   0  0  0  0  0  0  0  0  0  0  0  0
    6.8964   -0.7890    1.0441 H   0  0  0  0  0  0  0  0  0  0  0  0
    5.7280   -0.3685    2.3029 H   0  0  0  0  0  0  0  0  0  0  0  0
    5.4631   -2.6859    0.3101 H   0  0  0  0  0  0  0  0  0  0  0  0
    5.8329   -2.8383    2.0329 H   0  0  0  0  0  0  0  0  0  0  0  0
    3.4019   -3.2774    1.5720 H   0  0  0  0  0  0  0  0  0  0  0  0
    3.6163   -1.8710    2.6196 H   0  0  0  0  0  0  0  0  0  0  0  0
    3.0968   -1.7960   -0.4080 H   0  0  0  0  0  0  0  0  0  0  0  0
    1.9376   -1.3563    0.8539 H   0  0  0  0  0  0  0  0  0  0  0  0
    3.3743    0.5023    1.5915 H   0  0  0  0  0  0  0  0  0  0  0  0
    3.6367    2.6922    0.6003 H   0  0  0  0  0  0  0  0  0  0  0  0
    3.6462    2.8388   -1.1852 H   0  0  0  0  0  0  0  0  0  0  0  0
    3.0038    0.5303   -1.4280 H   0  0  0  0  0  0  0  0  0  0  0  0
  1  2  2  0  0  0  0
  1  6  1  0  0  0  0
  1 29  1  0  0  0  0
  2  3  1  0  0  0  0
  2  7  1  0  0  0  0
  3  4  2  0  0  0  0
  3 31  1  0  0  0  0
  4  5  1  0  0  0  0
  4 32  1  0  0  0  0
  5  6  2  0  0  0  0
  5 33  1  0  0  0  0
  6 34  1  0  0  0  0
  7  8  1  0  0  0  0
  7 14  1  0  0  0  0
  8  9  2  0  0  0  0
  8 13  1  0  0  0  0
  9 10  1  0  0  0  0
  9 35  1  0  0  0  0
 10 11  2  0  0  0  0
 10 36  1  0  0  0  0
 11 12  1  0  0  0  0
 11 37  1  0  0  0  0
 12 13  2  0  0  0  0
 12 38  1  0  0  0  0
 13 39  1  0  0  0  0
 14 15  2  0  0  0  0
 14 19  1  0  0  0  0
 15 16  1  0  0  0  0
 15 40  1  0  0  0  0
 16 17  2  0  0  0  0
 16 41  1  0  0  0  0
 17 18  1  0  0  0  0
 17 42  1  0  0  0  0
 18 19  2  0  0  0  0
 18 43  1  0  0  0  0
 19 44  1  0  0  0  0
 20 21  1  0  0  0  0
 20 25  1  0  0  0  0
 20 45  1  0  0  0  0
 20 46  1  0  0  0  0
 21 22  1  0  0  0  0
 21 47  1  0  0  0  0
 21 48  1  0  0  0  0
 22 23  1  0  0  0  0
 22 49  1  0  0  0  0
 22 50  1  0  0  0  0
 23 24  1  0  0  0  0
 23 51  1  0  0  0  0
 23 52  1  0  0  0  0
 24 25  1  0  0  0  0
 24 53  1  0  0  0  0
 24 54  1  0  0  0  0
 25 27  1  0  0  0  0
 25 55  1  0  0  0  0
 26 27  1  0  0  0  0
 26 30  1  0  0  0  0
 26 56  1  0  0  0  0
 26 57  1  0  0  0  0
 27 28  1  0  0  0  0
 27 58  1  6  0  0  0
 28 29  2  0  0  0  0
 29 30  1  0  0  0  0
M  END
$$$$
