Title Card Required
 OpenBabel03192317543D

 50 52  0  0  1  0  0  0  0  0999 V2000
    0.0748    1.3520    0.4546 C   0  0  0  0  0  0  0  0  0  0  0  0
    0.2509    1.8763    1.7528 O   0  0  0  0  0  0  0  0  0  0  0  0
    1.4598    3.1498   -0.5244 N   0  0  0  0  0  0  0  0  0  0  0  0
    0.1203    2.5769   -0.5000 C   0  0  2  0  0  0  0  0  0  0  0  0
   -0.7889    3.7322   -0.0179 C   0  0  0  0  0  0  0  0  0  0  0  0
    0.1906    4.7510    0.5706 C   0  0  0  0  0  0  0  0  0  0  0  0
    1.4004    4.5932   -0.3407 C   0  0  0  0  0  0  0  0  0  0  0  0
   -1.2554    0.5904    0.3909 C   0  0  0  0  0  0  0  0  0  0  0  0
   -2.3439    0.9813   -0.3961 C   0  0  0  0  0  0  0  0  0  0  0  0
   -3.5317    0.2539   -0.3701 C   0  0  0  0  0  0  0  0  0  0  0  0
   -3.6685   -0.8745    0.4352 C   0  0  0  0  0  0  0  0  0  0  0  0
   -2.5872   -1.2686    1.2139 C   0  0  0  0  0  0  0  0  0  0  0  0
   -1.3938   -0.5492    1.1870 C   0  0  0  0  0  0  0  0  0  0  0  0
   -2.6667   -2.5004    2.0795 C   0  0  0  0  0  0  0  0  0  0  0  0
   -3.9114   -2.9645    2.1651 F   0  0  0  0  0  0  0  0  0  0  0  0
   -1.9008   -3.4793    1.5979 F   0  0  0  0  0  0  0  0  0  0  0  0
   -2.2391   -2.2438    3.3173 F   0  0  0  0  0  0  0  0  0  0  0  0
   -4.7135    0.6860   -1.2016 C   0  0  0  0  0  0  0  0  0  0  0  0
   -4.4022    1.6874   -2.0243 F   0  0  0  0  0  0  0  0  0  0  0  0
   -5.1745   -0.3213   -1.9428 F   0  0  0  0  0  0  0  0  0  0  0  0
   -5.7201    1.0966   -0.4291 F   0  0  0  0  0  0  0  0  0  0  0  0
    1.2274    0.4176    0.0892 C   0  0  0  0  0  0  0  0  0  0  0  0
    1.1046   -0.5279   -0.9359 C   0  0  0  0  0  0  0  0  0  0  0  0
    2.1924   -1.3148   -1.2977 C   0  0  0  0  0  0  0  0  0  0  0  0
    3.4196   -1.1813   -0.6459 C   0  0  0  0  0  0  0  0  0  0  0  0
    3.5383   -0.2364    0.3647 C   0  0  0  0  0  0  0  0  0  0  0  0
    2.4558    0.5683    0.7282 C   0  0  0  0  0  0  0  0  0  0  0  0
    4.8409   -0.0522    1.0990 C   0  0  0  0  0  0  0  0  0  0  0  0
    5.8036   -0.8352    0.6131 F   0  0  0  0  0  0  0  0  0  0  0  0
    5.2660    1.2095    1.0188 F   0  0  0  0  0  0  0  0  0  0  0  0
    4.7067   -0.3364    2.3962 F   0  0  0  0  0  0  0  0  0  0  0  0
    2.0768   -2.3325   -2.4025 C   0  0  0  0  0  0  0  0  0  0  0  0
    0.8501   -2.3687   -2.9214 F   0  0  0  0  0  0  0  0  0  0  0  0
    2.9270   -2.0622   -3.3959 F   0  0  0  0  0  0  0  0  0  0  0  0
    2.3693   -3.5578   -1.9652 F   0  0  0  0  0  0  0  0  0  0  0  0
    0.1177    1.1764    2.4028 H   0  0  0  0  0  0  0  0  0  0  0  0
    2.0192    2.8496   -1.3150 H   0  0  0  0  0  0  0  0  0  0  0  0
   -0.1924    2.2154   -1.4959 H   0  0  0  0  0  0  0  0  0  0  0  0
   -1.3159    4.1690   -0.8803 H   0  0  0  0  0  0  0  0  0  0  0  0
   -1.5375    3.4004    0.7123 H   0  0  0  0  0  0  0  0  0  0  0  0
   -0.2085    5.7733    0.5878 H   0  0  0  0  0  0  0  0  0  0  0  0
    0.4587    4.4508    1.5924 H   0  0  0  0  0  0  0  0  0  0  0  0
    1.2358    5.1463   -1.2873 H   0  0  0  0  0  0  0  0  0  0  0  0
    2.3298    4.9702    0.1107 H   0  0  0  0  0  0  0  0  0  0  0  0
   -2.2885    1.8580   -1.0398 H   0  0  0  0  0  0  0  0  0  0  0  0
   -4.6008   -1.4407    0.4528 H   0  0  0  0  0  0  0  0  0  0  0  0
   -0.5521   -0.9015    1.7920 H   0  0  0  0  0  0  0  0  0  0  0  0
    0.1534   -0.6605   -1.4553 H   0  0  0  0  0  0  0  0  0  0  0  0
    4.2697   -1.8052   -0.9249 H   0  0  0  0  0  0  0  0  0  0  0  0
    2.5599    1.3306    1.5010 H   0  0  0  0  0  0  0  0  0  0  0  0
  1  2  1  0  0  0  0
  1  4  1  0  0  0  0
  1  8  1  0  0  0  0
  1 22  1  0  0  0  0
  2 36  1  0  0  0  0
  3  4  1  0  0  0  0
  3  7  1  0  0  0  0
  3 37  1  0  0  0  0
  4  5  1  0  0  0  0
  4 38  1  6  0  0  0
  5  6  1  0  0  0  0
  5 39  1  0  0  0  0
  5 40  1  0  0  0  0
  6  7  1  0  0  0  0
  6 41  1  0  0  0  0
  6 42  1  0  0  0  0
  7 43  1  0  0  0  0
  7 44  1  0  0  0  0
  8  9  2  0  0  0  0
  8 13  1  0  0  0  0
  9 10  1  0  0  0  0
  9 45  1  0  0  0  0
 10 11  2  0  0  0  0
 10 18  1  0  0  0  0
 11 12  1  0  0  0  0
 11 46  1  0  0  0  0
 12 13  2  0  0  0  0
 12 14  1  0  0  0  0
 13 47  1  0  0  0  0
 14 15  1  0  0  0  0
 14 16  1  0  0  0  0
 14 17  1  0  0  0  0
 18 19  1  0  0  0  0
 18 20  1  0  0  0  0
 18 21  1  0  0  0  0
 22 23  2  0  0  0  0
 22 27  1  0  0  0  0
 23 24  1  0  0  0  0
 23 48  1  0  0  0  0
 24 25  2  0  0  0  0
 24 32  1  0  0  0  0
 25 26  1  0  0  0  0
 25 49  1  0  0  0  0
 26 27  2  0  0  0  0
 26 28  1  0  0  0  0
 27 50  1  0  0  0  0
 28 29  1  0  0  0  0
 28 30  1  0  0  0  0
 28 31  1  0  0  0  0
 32 33  1  0  0  0  0
 32 34  1  0  0  0  0
 32 35  1  0  0  0  0
M  END
$$$$
