Title Card Required
 OpenBabel03192317483D

 46 51  0  0  1  0  0  0  0  0999 V2000
    1.4823   -1.0380   -0.3215 O   0  0  0  0  0  0  0  0  0  0  0  0
    1.1935    0.2333    0.0480 C   0  0  0  0  0  0  0  0  0  0  0  0
    1.9370    0.8005    0.9001 N   0  0  0  0  0  0  0  0  0  0  0  0
    3.0019   -0.1527    1.2107 C   0  0  1  0  0  0  0  0  0  0  0  0
    2.5980   -1.4646    0.4700 C   0  0  2  0  0  0  0  0  0  0  0  0
   -0.0086    0.8252   -0.6271 C   0  0  1  0  0  0  0  0  0  0  0  0
   -2.5581   -1.3131    0.8427 C   0  0  1  0  0  0  0  0  0  0  0  0
   -3.0387   -1.2226   -0.6378 C   0  0  2  0  0  0  0  0  0  0  0  0
   -1.9781   -0.4948   -1.3364 N   0  0  0  0  0  0  0  0  0  0  0  0
   -1.1878   -0.0828   -0.4382 C   0  0  0  0  0  0  0  0  0  0  0  0
   -1.4330   -0.4258    0.8504 O   0  0  0  0  0  0  0  0  0  0  0  0
   -0.3153    2.2269   -0.1018 C   0  0  0  0  0  0  0  0  0  0  0  0
   -3.6895   -0.7904    1.7367 C   0  0  0  0  0  0  0  0  0  0  0  0
   -4.6560   -0.1414    0.7733 C   0  0  0  0  0  0  0  0  0  0  0  0
   -4.3138   -0.4127   -0.5527 C   0  0  0  0  0  0  0  0  0  0  0  0
    4.3147    0.2371    0.5710 C   0  0  0  0  0  0  0  0  0  0  0  0
    4.7363   -0.7201   -0.3532 C   0  0  0  0  0  0  0  0  0  0  0  0
    3.7847   -1.8937   -0.4051 C   0  0  0  0  0  0  0  0  0  0  0  0
   -5.7831    0.6272    1.0617 C   0  0  0  0  0  0  0  0  0  0  0  0
   -6.5551    1.1195    0.0098 C   0  0  0  0  0  0  0  0  0  0  0  0
   -6.2042    0.8513   -1.3169 C   0  0  0  0  0  0  0  0  0  0  0  0
   -5.0759    0.0850   -1.6067 C   0  0  0  0  0  0  0  0  0  0  0  0
    5.0433    1.4048    0.7814 C   0  0  0  0  0  0  0  0  0  0  0  0
    6.2213    1.6000    0.0623 C   0  0  0  0  0  0  0  0  0  0  0  0
    6.6543    0.6397   -0.8573 C   0  0  0  0  0  0  0  0  0  0  0  0
    5.9152   -0.5234   -1.0722 C   0  0  0  0  0  0  0  0  0  0  0  0
    3.0940   -0.2687    2.3009 H   0  0  0  0  0  0  0  0  0  0  0  0
    2.2457   -2.2652    1.1344 H   0  0  0  0  0  0  0  0  0  0  0  0
    0.1846    0.8423   -1.7095 H   0  0  0  0  0  0  0  0  0  0  0  0
   -2.1993   -2.3079    1.1407 H   0  0  0  0  0  0  0  0  0  0  0  0
   -3.2017   -2.2014   -1.1129 H   0  0  0  0  0  0  0  0  0  0  0  0
    0.5522    2.8818   -0.2481 H   0  0  0  0  0  0  0  0  0  0  0  0
   -1.1836    2.6422   -0.6294 H   0  0  0  0  0  0  0  0  0  0  0  0
   -0.5295    2.1834    0.9736 H   0  0  0  0  0  0  0  0  0  0  0  0
   -4.1708   -1.6181    2.2806 H   0  0  0  0  0  0  0  0  0  0  0  0
   -3.2916   -0.0907    2.4857 H   0  0  0  0  0  0  0  0  0  0  0  0
    4.2561   -2.8044   -0.0045 H   0  0  0  0  0  0  0  0  0  0  0  0
    3.4410   -2.1227   -1.4242 H   0  0  0  0  0  0  0  0  0  0  0  0
   -6.0564    0.8452    2.0962 H   0  0  0  0  0  0  0  0  0  0  0  0
   -7.4383    1.7233    0.2246 H   0  0  0  0  0  0  0  0  0  0  0  0
   -6.8147    1.2496   -2.1287 H   0  0  0  0  0  0  0  0  0  0  0  0
   -4.7830   -0.1153   -2.6389 H   0  0  0  0  0  0  0  0  0  0  0  0
    4.6856    2.1540    1.4900 H   0  0  0  0  0  0  0  0  0  0  0  0
    6.8067    2.5084    0.2130 H   0  0  0  0  0  0  0  0  0  0  0  0
    7.5776    0.8049   -1.4151 H   0  0  0  0  0  0  0  0  0  0  0  0
    6.2556   -1.2662   -1.7965 H   0  0  0  0  0  0  0  0  0  0  0  0
  1  2  1  0  0  0  0
  1  5  1  0  0  0  0
  2  3  2  0  0  0  0
  2  6  1  0  0  0  0
  3  4  1  0  0  0  0
  4  5  1  0  0  0  0
  4 16  1  0  0  0  0
  4 27  1  1  0  0  0
  5 18  1  0  0  0  0
  5 28  1  1  0  0  0
  6 10  1  0  0  0  0
  6 12  1  0  0  0  0
  6 29  1  6  0  0  0
  7  8  1  0  0  0  0
  7 11  1  0  0  0  0
  7 13  1  0  0  0  0
  7 30  1  1  0  0  0
  8  9  1  0  0  0  0
  8 15  1  0  0  0  0
  8 31  1  6  0  0  0
  9 10  2  0  0  0  0
 10 11  1  0  0  0  0
 12 32  1  0  0  0  0
 12 33  1  0  0  0  0
 12 34  1  0  0  0  0
 13 14  1  0  0  0  0
 13 35  1  0  0  0  0
 13 36  1  0  0  0  0
 14 15  2  0  0  0  0
 14 19  1  0  0  0  0
 15 22  1  0  0  0  0
 16 17  2  0  0  0  0
 16 23  1  0  0  0  0
 17 18  1  0  0  0  0
 17 26  1  0  0  0  0
 18 37  1  0  0  0  0
 18 38  1  0  0  0  0
 19 20  2  0  0  0  0
 19 39  1  0  0  0  0
 20 21  1  0  0  0  0
 20 40  1  0  0  0  0
 21 22  2  0  0  0  0
 21 41  1  0  0  0  0
 22 42  1  0  0  0  0
 23 24  2  0  0  0  0
 23 43  1  0  0  0  0
 24 25  1  0  0  0  0
 24 44  1  0  0  0  0
 25 26  2  0  0  0  0
 25 45  1  0  0  0  0
 26 46  1  0  0  0  0
M  END
$$$$
