Title Card Required
 OpenBabel03192317553D

 61 64  0  0  1  0  0  0  0  0999 V2000
   -0.5167    2.1394   -0.0584 C   0  0  0  0  0  0  0  0  0  0  0  0
   -1.0474    0.8709    0.6205 C   0  0  2  0  0  0  0  0  0  0  0  0
    0.0179    0.0760    1.4059 C   0  0  0  0  0  0  0  0  0  0  0  0
    1.1304   -0.7414    0.7158 C   0  0  1  0  0  0  0  0  0  0  0  0
    0.6593   -2.0939    0.1715 C   0  0  0  0  0  0  0  0  0  0  0  0
   -2.0063   -0.1499   -0.6254 P   0  0  0  0  0  0  0  0  0  0  0  0
   -2.7852   -1.4177    0.4860 C   0  0  0  0  0  0  0  0  0  0  0  0
   -3.4550   -1.0903    1.6723 C   0  0  0  0  0  0  0  0  0  0  0  0
   -4.0119   -2.0850    2.4725 C   0  0  0  0  0  0  0  0  0  0  0  0
   -3.9154   -3.4249    2.0924 C   0  0  0  0  0  0  0  0  0  0  0  0
   -3.2663   -3.7626    0.9072 C   0  0  0  0  0  0  0  0  0  0  0  0
   -2.7058   -2.7629    0.1106 C   0  0  0  0  0  0  0  0  0  0  0  0
   -3.4957    0.9141   -0.9267 C   0  0  0  0  0  0  0  0  0  0  0  0
   -4.2519    0.6001   -2.0642 C   0  0  0  0  0  0  0  0  0  0  0  0
   -5.4174    1.3010   -2.3682 C   0  0  0  0  0  0  0  0  0  0  0  0
   -5.8383    2.3445   -1.5451 C   0  0  0  0  0  0  0  0  0  0  0  0
   -5.0889    2.6773   -0.4177 C   0  0  0  0  0  0  0  0  0  0  0  0
   -3.9292    1.9661   -0.1099 C   0  0  0  0  0  0  0  0  0  0  0  0
    2.0551    0.1590   -0.6510 P   0  0  0  0  0  0  0  0  0  0  0  0
    2.8540    1.5562    0.2598 C   0  0  0  0  0  0  0  0  0  0  0  0
    3.0706    1.6029    1.6437 C   0  0  0  0  0  0  0  0  0  0  0  0
    3.6623    2.7182    2.2370 C   0  0  0  0  0  0  0  0  0  0  0  0
    4.0525    3.8043    1.4547 C   0  0  0  0  0  0  0  0  0  0  0  0
    3.8457    3.7711    0.0763 C   0  0  0  0  0  0  0  0  0  0  0  0
    3.2456    2.6589   -0.5117 C   0  0  0  0  0  0  0  0  0  0  0  0
    3.4805   -1.0063   -0.8492 C   0  0  0  0  0  0  0  0  0  0  0  0
    3.4821   -1.8252   -1.9857 C   0  0  0  0  0  0  0  0  0  0  0  0
    4.4945   -2.7631   -2.1884 C   0  0  0  0  0  0  0  0  0  0  0  0
    5.5284   -2.8825   -1.2615 C   0  0  0  0  0  0  0  0  0  0  0  0
    5.5456   -2.0613   -0.1335 C   0  0  0  0  0  0  0  0  0  0  0  0
    4.5286   -1.1303    0.0712 C   0  0  0  0  0  0  0  0  0  0  0  0
    0.1417    2.6975    0.6260 H   0  0  0  0  0  0  0  0  0  0  0  0
   -1.3436    2.8017   -0.3528 H   0  0  0  0  0  0  0  0  0  0  0  0
    0.0583    1.9098   -0.9673 H   0  0  0  0  0  0  0  0  0  0  0  0
   -1.7626    1.1867    1.3983 H   0  0  0  0  0  0  0  0  0  0  0  0
    0.4974    0.8131    2.0714 H   0  0  0  0  0  0  0  0  0  0  0  0
   -0.5119   -0.6289    2.0700 H   0  0  0  0  0  0  0  0  0  0  0  0
    1.8686   -0.9645    1.5057 H   0  0  0  0  0  0  0  0  0  0  0  0
    0.0586   -1.9786   -0.7432 H   0  0  0  0  0  0  0  0  0  0  0  0
    1.5177   -2.7376   -0.0686 H   0  0  0  0  0  0  0  0  0  0  0  0
    0.0420   -2.6119    0.9211 H   0  0  0  0  0  0  0  0  0  0  0  0
   -3.5569   -0.0434    1.9700 H   0  0  0  0  0  0  0  0  0  0  0  0
   -4.5312   -1.8147    3.3936 H   0  0  0  0  0  0  0  0  0  0  0  0
   -4.3531   -4.2036    2.7192 H   0  0  0  0  0  0  0  0  0  0  0  0
   -3.1943   -4.8072    0.5999 H   0  0  0  0  0  0  0  0  0  0  0  0
   -2.1912   -3.0298   -0.8157 H   0  0  0  0  0  0  0  0  0  0  0  0
   -3.9175   -0.2079   -2.7200 H   0  0  0  0  0  0  0  0  0  0  0  0
   -5.9943    1.0364   -3.2560 H   0  0  0  0  0  0  0  0  0  0  0  0
   -6.7455    2.9014   -1.7846 H   0  0  0  0  0  0  0  0  0  0  0  0
   -5.4082    3.4966    0.2287 H   0  0  0  0  0  0  0  0  0  0  0  0
   -3.3609    2.2494    0.7790 H   0  0  0  0  0  0  0  0  0  0  0  0
    2.7770    0.7620    2.2759 H   0  0  0  0  0  0  0  0  0  0  0  0
    3.8198    2.7374    3.3168 H   0  0  0  0  0  0  0  0  0  0  0  0
    4.5141    4.6767    1.9199 H   0  0  0  0  0  0  0  0  0  0  0  0
    4.1442    4.6185   -0.5432 H   0  0  0  0  0  0  0  0  0  0  0  0
    3.0679    2.6441   -1.5901 H   0  0  0  0  0  0  0  0  0  0  0  0
    2.6778   -1.7237   -2.7187 H   0  0  0  0  0  0  0  0  0  0  0  0
    4.4792   -3.3965   -3.0770 H   0  0  0  0  0  0  0  0  0  0  0  0
    6.3248   -3.6114   -1.4200 H   0  0  0  0  0  0  0  0  0  0  0  0
    6.3574   -2.1453    0.5910 H   0  0  0  0  0  0  0  0  0  0  0  0
    4.5568   -0.4859    0.9529 H   0  0  0  0  0  0  0  0  0  0  0  0
  1  2  1  0  0  0  0
  1 32  1  0  0  0  0
  1 33  1  0  0  0  0
  1 34  1  0  0  0  0
  2  3  1  0  0  0  0
  2  6  1  0  0  0  0
  2 35  1  1  0  0  0
  3  4  1  0  0  0  0
  3 36  1  0  0  0  0
  3 37  1  0  0  0  0
  4  5  1  0  0  0  0
  4 19  1  0  0  0  0
  4 38  1  1  0  0  0
  5 39  1  0  0  0  0
  5 40  1  0  0  0  0
  5 41  1  0  0  0  0
  6  7  1  0  0  0  0
  6 13  1  0  0  0  0
  7  8  2  0  0  0  0
  7 12  1  0  0  0  0
  8  9  1  0  0  0  0
  8 42  1  0  0  0  0
  9 10  2  0  0  0  0
  9 43  1  0  0  0  0
 10 11  1  0  0  0  0
 10 44  1  0  0  0  0
 11 12  2  0  0  0  0
 11 45  1  0  0  0  0
 12 46  1  0  0  0  0
 13 14  2  0  0  0  0
 13 18  1  0  0  0  0
 14 15  1  0  0  0  0
 14 47  1  0  0  0  0
 15 16  2  0  0  0  0
 15 48  1  0  0  0  0
 16 17  1  0  0  0  0
 16 49  1  0  0  0  0
 17 18  2  0  0  0  0
 17 50  1  0  0  0  0
 18 51  1  0  0  0  0
 19 20  1  0  0  0  0
 19 26  1  0  0  0  0
 20 21  2  0  0  0  0
 20 25  1  0  0  0  0
 21 22  1  0  0  0  0
 21 52  1  0  0  0  0
 22 23  2  0  0  0  0
 22 53  1  0  0  0  0
 23 24  1  0  0  0  0
 23 54  1  0  0  0  0
 24 25  2  0  0  0  0
 24 55  1  0  0  0  0
 25 56  1  0  0  0  0
 26 27  2  0  0  0  0
 26 31  1  0  0  0  0
 27 28  1  0  0  0  0
 27 57  1  0  0  0  0
 28 29  2  0  0  0  0
 28 58  1  0  0  0  0
 29 30  1  0  0  0  0
 29 59  1  0  0  0  0
 30 31  2  0  0  0  0
 30 60  1  0  0  0  0
 31 61  1  0  0  0  0
M  END
$$$$
